pglib_opf_case1354_pegase/pglib_opf_case1354_pegase_8regions.m
% -------------------------------------------------------------------------
% Partitioned MATPOWER Case File
% Copyright (c) 2025 Milad Hasanzadeh
% Generated on: 2025-06-05
% This file contains partitioned data for 8 regions


% -------------------- mpc_regionR1 --------------------

mpc_regionR1.version = '2';
mpc_regionR1.baseMVA = 100.0000;
mpc_regionR1.bus = [
%	bus_i       type        Pd          Qd          Gs          Bs          area        Vm          Va          baseKV      zone        Vmax        Vmin        
	 1	 1	 167.3	 54.8	 0	 110.54	 0	 1	 0	 380	 5	 1.1	 0.9;
	 2	 1	 152.9	 49.4	 0	 27.65	 0	 1	 0	 380	 5	 1.1	 0.9;
	 3	 1	 0	 0	 0	 2.31	 0	 1	 0	 380	 5	 1.1	 0.9;
	 4	 1	-8.4	 28.66	 0	 3.49	 0	 1	 0	 220	 5	 1.1	 0.9;
	 5	 1	 704.53	-35.33	 0	 13.102834	 0	 1	 0	 380	 5	 1.1	 0.9;
	 6	 2	 0	 0	 0	 0	 0	 1	 0	 220	 5	 1.1	 0.9;
	 7	 1	 38.34	 5.6	 0	 7.64	 0	 1	 0	 220	 5	 1.1	 0.9;
	 8	 2	 0	 0	 0	 0	 0	 1	 0	 220	 5	 1.1	 0.9;
	 9	 2	 0	 0	 0	 0	 0	 1	 0	 380	 5	 1.1	 0.9;
	 10	 1	 119.6	 29.6	 0	 5.34	 0	 1	 0	 220	 5	 1.1	 0.9;
	 11	 1	 13.82	 1.4	 0	 0.7	 0	 1	 0	 220	 5	 1.1	 0.9;
	 12	 2	 0	 0	 0	 0	 0	 1	 0	 220	 5	 1.1	 0.9;
	 13	 1	-0	-0	 0	 68.517663	 0	 1	 0	 380	 5	 1.1	 0.9;
	 14	 2	 0	 0	 0	 0	 0	 1	 0	 380	 5	 1.1	 0.9;
	 15	 1	 140.6	 42.6	 0	 5.71	 0	 1	 0	 220	 5	 1.1	 0.9;
	 16	 2	 0	 0	 0	 0	 0	 1	 0	 220	 5	 1.1	 0.9;
	 17	 1	 45.32	 18.5	 0	 0.74	 0	 1	 0	 220	 5	 1.1	 0.9;
	 18	 1	 232.1	 89.8	 0	 0.09	 0	 1	 0	 220	 5	 1.1	 0.9;
	 19	 2	 0	 0	 0	 0	 0	 1	 0	 220	 5	 1.1	 0.9;
	 20	 2	 0	 0	 0	 0	 0	 1	 0	 220	 5	 1.1	 0.9;
	 21	 2	 0	 0	 0	 0	 0	 1	 0	 220	 5	 1.1	 0.9;
	 22	 1	-0	-0	 0	 7.26	 0	 1	 0	 220	 5	 1.1	 0.9;
	 23	 1	 0	-0	 0	 0.22	 0	 1	 0	 220	 5	 1.1	 0.9;
	 24	 2	 0	 0	 0	 0	 0	 1	 0	 220	 5	 1.1	 0.9;
	 25	 1	 192.5	 78.3	 0	 6.65	 0	 1	 0	 220	 5	 1.1	 0.9;
	 26	 1	-0	-0	 0	 0.05	 0	 1	 0	 220	 5	 1.1	 0.9;
	 27	 1	 31.94	 8.8	 0	 3.79	 0	 1	 0	 220	 5	 1.1	 0.9;
	 28	 2	 0	 0	 0	 0	 0	 1	 0	 380	 5	 1.1	 0.9;
	 29	 1	 0	-0	 0	 0.16	 0	 1	 0	 220	 5	 1.1	 0.9;
	 30	 2	 0	 0	 0	 0	 0	 1	 0	 220	 5	 1.1	 0.9;
	 31	 1	 0	 0	 0	 30.637696	 0	 1	 0	 380	 5	 1.1	 0.9;
	 32	 1	 71.78	 17.9	 0	 1.96	 0	 1	 0	 220	 5	 1.1	 0.9;
	 33	 1	 348.93	 26.47	 0	 9.36	 0	 1	 0	 380	 5	 1.1	 0.9;
	 34	 2	 0	 0	 0	 0	 0	 1	 0	 220	 5	 1.1	 0.9;
	 35	 1	 0	 0	 0	 0.59	 0	 1	 0	 220	 5	 1.1	 0.9;
	 36	 1	-0	-0	 0	 58.3	 0	 1	 0	 380	 5	 1.1	 0.9;
	 37	 1	-3.29	-1.32	 0	 190.704588	 0	 1	 0	 380	 5	 1.1	 0.9;
	 38	 1	 196.7	 44.2	 0	 0.1	 0	 1	 0	 220	 5	 1.1	 0.9;
	 39	 1	 125.4	 45.8	 0	 0	 0	 1	 0	 220	 5	 1.1	 0.9;
	 40	 1	-15.38	-4.94	 0	 33.241519	 0	 1	 0	 380	 5	 1.1	 0.9;
	 41	 2	 0	 0	 0	 0	 0	 1	 0	 220	 5	 1.1	 0.9;
	 42	 2	 0	 0	 0	 0	 0	 1	 0	 220	 5	 1.1	 0.9;
	 43	 1	 0	 0	 0	 1.53	 0	 1	 0	 220	 5	 1.1	 0.9;
	 44	 1	 11.71	 3.8	 0	 2.96	 0	 1	 0	 220	 5	 1.1	 0.9;
	 45	 1	 27.33	 5	 0	 6.77	 0	 1	 0	 220	 5	 1.1	 0.9;
	 46	 1	 20.82	-0	 0	 0.14	 0	 1	 0	 220	 5	 1.1	 0.9;
	 47	 1	-0	 0	 0	 2.68	 0	 1	 0	 220	 5	 1.1	 0.9;
	 48	 1	 0	 0	 0	 0.14	 0	 1	 0	 220	 5	 1.1	 0.9;
	 49	 2	 0	 0	 0	 0	 0	 1	 0	 380	 5	 1.1	 0.9;
	 50	 1	 77.19	 18.6	 0	 2.22	 0	 1	 0	 220	 5	 1.1	 0.9;
	 51	 1	-0	-0	 0	 38.32	 0	 1	 0	 380	 5	 1.1	 0.9;
	 52	 1	 0	 0	 0	 56.686515	 0	 1	 0	 380	 5	 1.1	 0.9;
	 53	 1	 107.3	 14.2	 0	 20.23	 0	 1	 0	 220	 5	 1.1	 0.9;
	 54	 1	 0	-0	 0	 7.63	 0	 1	 0	 220	 5	 1.1	 0.9;
	 55	 1	-0	 0	 0	 0.18	 0	 1	 0	 220	 5	 1.1	 0.9;
	 56	 2	 0	 0	 0	 0	 0	 1	 0	 380	 5	 1.1	 0.9;
	 57	 1	 0	 0	 0	 0.45	 0	 1	 0	 220	 5	 1.1	 0.9;
	 58	 1	 170.9	 39	 0	 11.25	 0	 1	 0	 220	 5	 1.1	 0.9;
	 59	 2	 0	 0	 0	 0	 0	 1	 0	 380	 5	 1.1	 0.9;
	 60	 1	 20.82	 0	 0	 0.13	 0	 1	 0	 220	 5	 1.1	 0.9;
	 61	 2	 0	 0	 0	 0	 0	 1	 0	 220	 5	 1.1	 0.9;
	 62	 2	 0	 0	 0	 0	 0	 1	 0	 220	 5	 1.1	 0.9;
	 63	 1	-2.65	-1.17	 0	 65.673108	 0	 1	 0	 380	 5	 1.1	 0.9;
	 64	 2	 0	 0	 0	 0	 0	 1	 0	 220	 5	 1.1	 0.9;
	 65	 1	-5.29	-1.91	 0	 42.622979	 0	 1	 0	 380	 5	 1.1	 0.9;
	 66	 2	 0	 0	 0	 0	 0	 1	 0	 220	 5	 1.1	 0.9;
	 67	 1	 14.72	 5.4	 0	 0.72	 0	 1	 0	 220	 5	 1.1	 0.9;
	 68	 1	 25.63	 12.7	 0	 8.42	 0	 1	 0	 220	 5	 1.1	 0.9;
	 69	 2	 0	 0	 0	 0	 0	 1	 0	 220	 5	 1.1	 0.9;
	 70	 1	 207.1	 50.4	 0	 4.93	 0	 1	 0	 220	 5	 1.1	 0.9;
	 71	 2	 0	 0	 0	 0	 0	 1	 0	 220	 5	 1.1	 0.9;
	 72	 2	 0	 0	 0	 0	 0	 1	 0	 220	 5	 1.1	 0.9;
	 73	 1	-0	-0	 0	 0.39	 0	 1	 0	 220	 5	 1.1	 0.9;
	 74	 1	 37.73	 13.84	 0	 0.09	 0	 1	 0	 220	 5	 1.1	 0.9;
	 75	 1	 29.93	-0	 0	 0.46	 0	 1	 0	 220	 5	 1.1	 0.9;
	 76	 1	-0	 0	 0	 3.2	 0	 1	 0	 220	 5	 1.1	 0.9;
	 77	 2	 0	 0	 0	 0	 0	 1	 0	 220	 5	 1.1	 0.9;
	 78	 1	 0	-0	 0	 2.83	 0	 1	 0	 220	 5	 1.1	 0.9;
	 79	 1	 30.33	 10.5	 0	 0.33	 0	 1	 0	 220	 5	 1.1	 0.9;
	 80	 1	-0	 0	 0	 0	 0	 1	 0	 220	 5	 1.1	 0.9;
	 81	 1	 104.78	 20.92	 0	 6.17	 0	 1	 0	 220	 5	 1.1	 0.9;
	 82	 1	 8.51	 3.2	 0	 0.96	 0	 1	 0	 220	 5	 1.1	 0.9;
	 83	 2	 0	 0	 0	 0	 0	 1	 0	 220	 5	 1.1	 0.9;
	 84	 2	 0	 0	 0	 0	 0	 1	 0	 220	 5	 1.1	 0.9;
	 85	 1	 132	 27	 0	 4.66	 0	 1	 0	 220	 5	 1.1	 0.9;
	 86	 1	 20.9	-171.5	 0	 0.21	 0	 1	 0	 220	 5	 1.1	 0.9;
	 87	 1	-0	-0	 0	 0.13	 0	 1	 0	 220	 5	 1.1	 0.9;
	 88	 2	 0	 0	 0	 0	 0	 1	 0	 220	 5	 1.1	 0.9;
	 89	 2	 0	 0	 0	 0	 0	 1	 0	 220	 5	 1.1	 0.9;
	 90	 1	-0	-0	 0	 4.56	 0	 1	 0	 220	 5	 1.1	 0.9;
	 91	 2	 0	 0	 0	 0	 0	 1	 0	 380	 5	 1.1	 0.9;
	 92	 2	 0	 0	 0	 0	 0	 1	 0	 220	 5	 1.1	 0.9;
	 93	 1	 77.49	 21.4	 0	 0.05	 0	 1	 0	 220	 5	 1.1	 0.9;
	 94	 1	 23.22	 6.3	 0	 0.66	 0	 1	 0	 220	 5	 1.1	 0.9;
	 95	 1	-0	 0	 0	 0	 0	 1	 0	 220	 5	 1.1	 0.9;
	 96	 1	 180.4	 71.6	 0	 81.042938	 0	 1	 0	 380	 5	 1.1	 0.9;
	 97	 1	 98.2	 19.1	 0	 10.92	 0	 1	 0	 220	 5	 1.1	 0.9;
	 98	 2	 0	 0	 0	 0	 0	 1	 0	 380	 5	 1.1	 0.9;
	 99	 1	 20.12	 7.6	 0	 0.89	 0	 1	 0	 220	 5	 1.1	 0.9;
	 100	 1	-0	 0	 0	 2.51	 0	 1	 0	 220	 5	 1.1	 0.9;
	 101	 2	 0	 0	 0	 0	 0	 1	 0	 380	 5	 1.1	 0.9;
	 102	 1	 155.05	 39.56	 0	 6.27	 0	 1	 0	 220	 5	 1.1	 0.9;
	 103	 1	-0	-0	 0	 12.4	 0	 1	 0	 220	 5	 1.1	 0.9;
	 104	 1	-0	-0	 0	 2.26	 0	 1	 0	 220	 5	 1.1	 0.9;
	 105	 1	 0	 0	 0	 4.77	 0	 1	 0	 220	 5	 1.1	 0.9;
	 106	 1	-0	 0	 0	 39.95	 0	 1	 0	 380	 5	 1.1	 0.9;
	 107	 1	 89.3	 25.1	 0	 2.98	 0	 1	 0	 220	 5	 1.1	 0.9;
	 108	 1	-0	-0	 0	 0.84	 0	 1	 0	 220	 5	 1.1	 0.9;
	 109	 1	 77.19	 26.5	 0	 6.2	 0	 1	 0	 220	 5	 1.1	 0.9;
	 110	 1	 110.8	 36.9	 0	 23.2	 0	 1	 0	 220	 5	 1.1	 0.9;
	 111	 1	 265.7	 113.5	 0	 1.85	 0	 1	 0	 220	 5	 1.1	 0.9;
	 112	 1	-0	-0	 0	 0.89	 0	 1	 0	 220	 5	 1.1	 0.9;
	 113	 2	 0	 0	 0	 0	 0	 1	 0	 220	 5	 1.1	 0.9;
	 114	 1	 13.01	 3.8	 0	 3.59	 0	 1	 0	 220	 5	 1.1	 0.9;
	 115	 2	 0	 0	 0	 0	 0	 1	 0	 220	 5	 1.1	 0.9;
	 116	 2	 0	 0	 0	 0	 0	 1	 0	 220	 5	 1.1	 0.9;
	 117	 1	 11.11	 4.1	 0	 0.8	 0	 1	 0	 220	 5	 1.1	 0.9;
	 118	 1	-3.2	-1.05	 0	 48.471563	 0	 1	 0	 380	 5	 1.1	 0.9;
	 119	 3	 0	 0	 0	 0	 0	 1	 0	 380	 5	 1.1	 0.9;
	 120	 1	 47.15	 15.7	 0	 5.41	 0	 1	 0	 220	 5	 1.1	 0.9;
	 121	 1	 70.78	 19.6	 0	 7.9	 0	 1	 0	 220	 5	 1.1	 0.9;
	 122	 2	 0	 0	 0	 0	 0	 1	 0	 220	 5	 1.1	 0.9;
	 123	 2	 0	 0	 0	 0	 0	 1	 0	 380	 5	 1.1	 0.9;
	 124	 1	-0	-0	 0	 1	 0	 1	 0	 220	 5	 1.1	 0.9;
	 125	 2	 0	 0	 0	 0	 0	 1	 0	 220	 5	 1.1	 0.9;
	 126	 1	 92.1	 29.5	 0	 3.14	 0	 1	 0	 220	 5	 1.1	 0.9;
	 127	 1	-0	-0	 0	 0.94	 0	 1	 0	 220	 5	 1.1	 0.9;
	 128	 1	 0	-0	 0	 150.797812	 0	 1	 0	 380	 5	 1.1	 0.9;
	 129	 1	-0	-0	 0	 14.64	 0	 1	 0	 220	 5	 1.1	 0.9;
	 130	 1	 130.5	 25.7	 0	 2.27	 0	 1	 0	 220	 5	 1.1	 0.9;
	 131	 1	-0	 0	 0	 52.958443	 0	 1	 0	 380	 5	 1.1	 0.9;
	 132	 1	 195.4	 76.84	 0	 8.59	 0	 1	 0	 220	 5	 1.1	 0.9;
	 133	 1	 4.91	 1.6	 0	 4.15	 0	 1	 0	 220	 5	 1.1	 0.9;
	 134	 1	-0	-0	 0	 1.49	 0	 1	 0	 220	 5	 1.1	 0.9;
	 135	 2	 0	 0	 0	 0	 0	 1	 0	 220	 5	 1.1	 0.9;
	 136	 1	 171.9	 39.1	 0	 4.23	 0	 1	 0	 220	 5	 1.1	 0.9;
	 137	 1	 130.4	 44.33	 0	 5.22	 0	 1	 0	 220	 5	 1.1	 0.9;
	 138	 2	 0	 0	 0	 0	 0	 1	 0	 220	 5	 1.1	 0.9;
	 139	 1	 109.9	 33.6	 0	 3.72	 0	 1	 0	 220	 5	 1.1	 0.9;
	 140	 1	-0	 0	 0	 8.347383	 0	 1	 0	 380	 5	 1.1	 0.9;
	 141	 1	 0	 0	 0	 9.34	 0	 1	 0	 220	 5	 1.1	 0.9;
	 142	 2	 0	 0	 0	 0	 0	 1	 0	 220	 5	 1.1	 0.9;
	 143	 1	 16.92	 0	 0	 0.57	 0	 1	 0	 220	 5	 1.1	 0.9;
	 144	 2	 0	 0	 0	 0	 0	 1	 0	 380	 5	 1.1	 0.9;
	 145	 1	 0	 0	 0	 0.18	 0	 1	 0	 220	 5	 1.1	 0.9;
	 146	 1	-0	 0	 0	 0.18	 0	 1	 0	 220	 5	 1.1	 0.9;
	 147	 1	 0	 0	 0	 3.28	 0	 1	 0	 220	 5	 1.1	 0.9;
	 148	 1	 241.62	 52.78	 0	 0.82	 0	 1	 0	 220	 5	 1.1	 0.9;
	 149	 1	-0	-0	 0	 5.27	 0	 1	 0	 220	 5	 1.1	 0.9;
	 150	 2	 0	 0	 0	 0	 0	 1	 0	 220	 5	 1.1	 0.9;
	 151	 2	 0	 0	 0	 0	 0	 1	 0	 380	 5	 1.1	 0.9;
	 152	 2	 0	 0	 0	 0	 0	 1	 0	 220	 5	 1.1	 0.9;
	 153	 2	 0	 0	 0	 0	 0	 1	 0	 220	 5	 1.1	 0.9;
	 154	 1	 0	 0	 0	 3.59	 0	 1	 0	 220	 5	 1.1	 0.9;
	 155	 1	-0	 0	 0	 0	 0	 1	 0	 220	 5	 1.1	 0.9;
	 156	 1	 52.26	 19.6	 0	 2.64	 0	 1	 0	 220	 5	 1.1	 0.9;
	 157	 1	 14.12	 5.2	 0	 1.44	 0	 1	 0	 220	 5	 1.1	 0.9;
	 158	 1	-0	-0	 0	 8.13	 0	 1	 0	 220	 5	 1.1	 0.9;
	 159	 1	 122.5	 38.9	 0	 0.84	 0	 1	 0	 220	 5	 1.1	 0.9;
	 160	 2	 0	 0	 0	 0	 0	 1	 0	 220	 5	 1.1	 0.9;
	 161	 2	 0	 0	 0	 0	 0	 1	 0	 220	 5	 1.1	 0.9;
	 162	 1	 0	-0	 0	 4.53	 0	 1	 0	 220	 5	 1.1	 0.9;
	 163	 2	 0	 0	 0	 0	 0	 1	 0	 220	 5	 1.1	 0.9;
	 164	 1	 103	 40.2	 0	 1.13	 0	 1	 0	 220	 5	 1.1	 0.9;
	 165	 1	 45.28	 15.27	 0	 7.88	 0	 1	 0	 220	 5	 1.1	 0.9;
	 166	 1	 221.25	 72.56	 0	 8.23	 0	 1	 0	 220	 5	 1.1	 0.9;
	 167	 2	 0	 0	 0	 0	 0	 1	 0	 380	 5	 1.1	 0.9;
	 168	 2	 0	 0	 0	 0	 0	 1	 0	 220	 5	 1.1	 0.9;
	 169	 1	 0	-0	 0	 3.14	 0	 1	 0	 220	 5	 1.1	 0.9;
	 170	 1	-7.62	-2.52	 0	 33.197994	 0	 1	 0	 380	 5	 1.1	 0.9;
	 171	 1	-0	 0	 0	 11.5	 0	 1	 0	 220	 5	 1.1	 0.9;
	 172	 2	 0	 0	 0	 0	 0	 1	 0	 220	 5	 1.1	 0.9;
	 173	 1	-0	-0	 0	 0.35	 0	 1	 0	 220	 5	 1.1	 0.9;
	 174	 2	 0	 0	 0	 0	 0	 1	 0	 220	 5	 1.1	 0.9;
	 175	 1	 159.9	 47.4	 0	 3.65	 0	 1	 0	 220	 5	 1.1	 0.9;
	 176	 1	 76.48	 19.8	 0	 5.41	 0	 1	 0	 220	 5	 1.1	 0.9;
	 177	 1	 10.21	 3.8	 0	 4.6	 0	 1	 0	 220	 5	 1.1	 0.9;
	 178	 1	 5.51	 2.1	 0	 1.92	 0	 1	 0	 220	 5	 1.1	 0.9;
	 179	 1	-37.33	-11.88	 0	 145.18	 0	 1	 0	 380	 5	 1.1	 0.9;
	 180	 1	 61.65	 10.24	 0	 3.48	 0	 1	 0	 220	 5	 1.1	 0.9;
	 181	 1	 10.33	 3.3	 0	 4.65	 0	 1	 0	 220	 5	 1.1	 0.9;
	 182	 1	-0	-0	 0	 0.3	 0	 1	 0	 220	 5	 1.1	 0.9;
	 183	 1	 0	 0	 0	 1.58	 0	 1	 0	 220	 5	 1.1	 0.9;
	 184	 1	 0	-0	 0	 9.74	 0	 1	 0	 220	 5	 1.1	 0.9;
	 185	 1	 244.12	 95.29	 0	 7.55	 0	 1	 0	 220	 5	 1.1	 0.9;
	 186	 2	 0	 0	 0	 0	 0	 1	 0	 220	 5	 1.1	 0.9;
	 187	 2	 0	 0	 0	 0	 0	 1	 0	 220	 5	 1.1	 0.9;
	 188	 2	 0	 0	 0	 0	 0	 1	 0	 220	 5	 1.1	 0.9;
	 189	 1	 47.75	 11	 0	 0.05	 0	 1	 0	 220	 5	 1.1	 0.9;
	 190	 1	 98	 21.7	 0	 6	 0	 1	 0	 220	 5	 1.1	 0.9;
	 191	 1	-0	-0	 0	 3.13	 0	 1	 0	 220	 5	 1.1	 0.9;
	 192	 2	 0	 0	 0	 0	 0	 1	 0	 220	 5	 1.1	 0.9;
	 193	 1	 113.6	 44.7	 0	 1.91	 0	 1	 0	 220	 5	 1.1	 0.9;
	 194	 1	 56.56	 18.4	 0	 3.29	 0	 1	 0	 220	 5	 1.1	 0.9;
	 195	 1	 226.8	 53.3	 0	 3.26	 0	 1	 0	 220	 5	 1.1	 0.9;
	 196	 2	 0	 0	 0	 0	 0	 1	 0	 220	 5	 1.1	 0.9;
	 197	 2	 0	 0	 0	 0	 0	 1	 0	 220	 5	 1.1	 0.9;
	 198	 1	 149.53	 34.9	 0	 8.9	 0	 1	 0	 220	 5	 1.1	 0.9;
	 199	 1	 222	 90.5	 0	 0.16	 0	 1	 0	 220	 5	 1.1	 0.9;
	 200	 1	 102.3	 19	 0	 1.84	 0	 1	 0	 220	 5	 1.1	 0.9;
...
];

mpc_regionR1.gen = [
%	bus         Pg          Qg          Qmax        Qmin        Vg          mBase       status      Pmax        Pmin        Pc1         Pc2         Qc1min      Qc1max      Qc2min      Qc2max      ramp_agc    ramp_10     ramp_30     ramp_q      apf         
	 6	 666.665	 133.865	 440.32	-172.59	 1	 100	 1	 1000	 333.33;
	 8	 80	 27.275	 77.09	-22.54	 1	 100	 1	 160	 0;
	 9	-53.59	 59.31	 183.92	-65.3	 1	 100	 1	 100	-207.18;
	 12	 60	 18.19	 55.54	-19.16	 1	 100	 1	 120	 0;
	 14	 270	 91.415	 257.23	-74.4	 1	 100	 1	 540	 0;
	 16	 320	 68.37	 217.9	-81.16	 1	 100	 1	 480	 160;
	 19	-24.265	 5.715	 18.16	-6.73	 1	 100	 1	 100	-148.53;
	 20	 16.79	 1.505	 12.37	-9.36	 1	 100	 1	 33.58	 0;
	 21	 40	 11.855	 36.75	-13.04	 1	 100	 1	 80	 0;
	 24	 100	 34.415	 96.64	-27.81	 1	 100	 1	 200	 0;
	 28	 600	 112.24	 387.88	-163.4	 1	 100	 1	 900	 300;
	 30	 40	 11.895	 36.8	-13.01	 1	 100	 1	 80	 0;
	 34	-32.735	 12.02	 36.92	-12.88	 1	 100	 1	 100	-165.47;
	 41	 20	 6.065	 18.52	-6.39	 1	 100	 1	 40	 0;
	 42	 49.6	 36.535	 111.23	-38.16	 1	 100	 1	 100	-0.8;
	 49	 1333.335	 349.275	 962.2	-263.65	 1	 100	 1	 2000	 666.67;
	 56	 14.475	 2.385	 19.51	-14.74	 1	 100	 1	 100	-71.05;
	 59	 40	 9.425	 34.35	-15.5	 1	 100	 1	 80	 0;
	 61	 21.2	 3.16	 105.34	-99.02	 1	 100	 1	 100	-57.6;
	 62	 40	 13.105	 38.02	-11.81	 1	 100	 1	 80	 0;
	 64	 180	 50.305	 162.4	-61.79	 1	 100	 1	 360	 0;
	 66	 60	 20.87	 58.23	-16.49	 1	 100	 1	 120	 0;
	 69	 80	 26.245	 76.08	-23.59	 1	 100	 1	 160	 0;
	 71	 98.36	 6.025	 70.15	-58.1	 1	 100	 1	 196.72	 0;
	 72	-13.4	 26	 88.33	-36.33	 1	 100	 1	 100	-126.8;
	 77	 3.415	 0.3	 2.51	-1.91	 1	 100	 1	 6.83	 0;
	 83	-21.6	 11.895	 36.79	-13	 1	 100	 1	 100	-143.2;
	 84	 21.8	 5.43	 62.23	-51.37	 1	 100	 1	 100	-56.4;
	 88	 666.665	 132.885	 439.2	-173.43	 1	 100	 1	 1000	 333.33;
	 89	 32.35	 13.245	 38.13	-11.64	 1	 100	 1	 100	-35.3;
	 91	 40	 12.17	 37.1	-12.76	 1	 100	 1	 80	 0;
	 92	 40	 13.295	 38.2	-11.61	 1	 100	 1	 80	 0;
	 98	 600	 112.24	 387.88	-163.4	 1	 100	 1	 900	 300;
	 101	 666.665	 134.495	 441.04	-172.05	 1	 100	 1	 1000	 333.33;
	 113	-1.265	 13.14	 38.05	-11.77	 1	 100	 1	 100	-102.53;
	 115	 40	 13.485	 38.37	-11.4	 1	 100	 1	 80	 0;
	 116	 60	 19.7	 57.03	-17.63	 1	 100	 1	 120	 0;
	 119	 2761.14	 0	 99999	-99999	 1	 100	 1	 4188.95	 1333.33;
	 122	 40	 11.805	 36.73	-13.12	 1	 100	 1	 80	 0;
	 123	 666.665	 134.495	 441.04	-172.05	 1	 100	 1	 1000	 333.33;
	 125	 666.665	 132.885	 439.2	-173.43	 1	 100	 1	 1000	 333.33;
	 135	 666.665	 132.885	 439.2	-173.43	 1	 100	 1	 1000	 333.33;
	 138	 23.135	 25.83	 75.62	-23.96	 1	 100	 1	 100	-53.73;
	 142	 14.995	 13.39	 38.28	-11.5	 1	 100	 1	 100	-70.01;
	 144	 1333.335	 269.81	 882.86	-343.24	 1	 100	 1	 2000	 666.67;
	 150	 124.53	 26.6	 101.32	-48.12	 1	 100	 1	 249.06	 0;
	 151	 666.665	 134.495	 441.04	-172.05	 1	 100	 1	 1000	 333.33;
	 152	 100	 26.58	 88.87	-35.71	 1	 100	 1	 200	 0;
	 153	 40	 11.905	 36.8	-12.99	 1	 100	 1	 80	 0;
	 160	 320	 64.565	 214.13	-85	 1	 100	 1	 480	 160;
	 161	 0.065	 4.74	 17.21	-7.73	 1	 100	 1	 100	-99.87;
	 163	-8.2	-0.285	 60.51	-61.08	 1	 100	 1	 100	-116.4;
	 167	 401.01	-6.085	 249.65	-261.82	 1	 100	 1	 769.94	 32.08;
	 168	 26.88	 2.465	 19.86	-14.93	 1	 100	 1	 53.76	 0;
	 172	 40	 12.855	 37.76	-12.05	 1	 100	 1	 80	 0;
	 174	 31.465	 48.96	 148.65	-50.73	 1	 100	 1	 100	-37.07;
	 186	 80	 27.34	 77.14	-22.46	 1	 100	 1	 160	 0;
	 187	 16.265	 1.465	 11.99	-9.06	 1	 100	 1	 32.53	 0;
	 188	 11.665	 10.685	 35.62	-14.25	 1	 100	 1	 100	-76.67;
	 192	 194.335	 64.72	 189.31	-59.87	 1	 100	 1	 300	 88.67;
	 196	 40	 11.22	 36.16	-13.72	 1	 100	 1	 80	 0;
	 197	 136.14	 5.86	 95.06	-83.34	 1	 100	 1	 272.28	 0;
	 201	 666.665	 134.495	 441.04	-172.05	 1	 100	 1	 1000	 333.33;
	 202	 3.675	 0.83	 3.12	-1.46	 1	 100	 1	 7.35	 0;
	 203	 2666.665	 637.065	 1862.29	-588.16	 1	 100	 1	 4000	 1333.33;
	 213	 125.265	 77.23	 214.23	-59.77	 1	 100	 1	 200	 50.53;
	 226	 100	 27.76	 90.08	-34.56	 1	 100	 1	 200	 0;
	 234	 100	 29.33	 91.67	-33.01	 1	 100	 1	 200	 0;
	 237	 44.17	 5.335	 17.8	-7.13	 1	 100	 1	 100	-11.66;
	 240	-40	 27.88	 90.21	-34.45	 1	 100	 1	 100	-180;
	 241	-0.46	 0.96	 3.61	-1.69	 1	 100	 1	 100	-100.92;
	 243	 6.665	 14.525	 51.91	-22.86	 1	 100	 1	 100	-86.67;
	 247	 120	 36.925	 111.7	-37.85	 1	 100	 1	 240	 0;
	 248	 80	 27.06	 76.87	-22.75	 1	 100	 1	 160	 0;
	 251	 43.365	 0.29	 28.99	-28.41	 1	 100	 1	 86.73	 0;
	 252	 8.8	 1.57	 53.52	-50.38	 1	 100	 1	 100	-82.4;
	 253	 158.545	 3.055	 107.59	-101.48	 1	 100	 1	 317.09	 0;
];

mpc_regionR1.branch = [
%	fbus        tbus        r           x           b           rateA       rateB       rateC       ratio       angle       status      angmin      angmax      
	 261	 226	 7e-05	 0.00076	 0	 887	 41388	 41388	 0	 0	 1	-30	 30;
	 261	 253	 0.00066	 0.00622	 0	 1611	 5051	 5051	 0	 0	 1	-30	 30;
	 261	 52	 0.00054	 0.00752	 0	 4190	 4190	 4190	 0	 0	 1	-30	 30;
	 261	 2	 0.00105	 0.00877	 0	 1315	 3577	 3577	 0	 0	 1	-30	 30;
	 5	 251	 8e-05	 0.00091	 0	 657	 34578	 34578	 0	 0	 1	-30	 30;
	 5	 131	 0.00056	 0.00719	 0	 953	 4380	 4380	 0	 0	 1	-30	 30;
	 61	 152	 0.000531	 0.002039	 0	 319	 14992	 14992	 0	 0	 1	-30	 30;
	 61	 137	 0.008659	 0.03769	 0	 300	 817	 817	 0	 0	 1	-30	 30;
	 61	 252	 0.003849	 0.021099	 0	 1473	 1473	 1473	 0	 0	 1	-30	 30;
	 61	 241	 0.00688	 0.035969	 0	 300	 863	 863	 0	 0	 1	-30	 30;
	 61	 192	 0.006729	 0.03713	 0	 838	 838	 838	 0	 0	 1	-30	 30;
	 61	 94	 0.00111	 0.006651	 0	 414	 4685	 4685	 0	 0	 1	-30	 30;
	 61	 17	 0.0023	 0.008909	 0	 3433	 3433	 3433	 0	 0	 1	-30	 30;
	 61	 69	 0.000841	 0.00313	 0	 9747	 9747	 9747	 0	 0	 1	-30	 30;
	 61	 147	 0.003521	 0.017479	 0	 300	 1772	 1772	 0	 0	 1	-30	 30;
	 244	 212	 0.005281	 0.032099	 0	 395	 972	 972	 0	 0	 1	-30	 30;
	 244	 212	 0.005651	 0.029419	 0	 376	 1055	 1055	 0	 0	 1	-30	 30;
	 83	 224	 0.005271	 0.01906	 0	 281	 1598	 1598	 0	 0	 1	-30	 30;
	 83	 149	 0.00906	 0.053151	 0	 319	 586	 586	 0	 0	 1	-30	 30;
	 83	 43	 0.00405	 0.0153	 0	 1996	 1996	 1996	 0	 0	 1	-30	 30;
	 237	 103	 0.00045	 0.002341	 0	 13251	 13251	 13251	 0	 0	 1	-30	 30;
	 197	 186	 0.00212	 0.00931	 0	 319	 3309	 3309	 0	 0	 1	-30	 30;
	 181	 258	 0.007271	 0.033159	 0	 281	 931	 931	 0	 0	 1	-30	 30;
	 181	 233	 0.006659	 0.03132	 0	 300	 987	 987	 0	 0	 1	-30	 30;
	 170	 219	 0.00141	 0.0188	 0	 1315	 1676	 1676	 0	 0	 1	-30	 30;
	 170	 179	 0.00121	 0.01427	 0	 1545	 2206	 2206	 0	 0	 1	-30	 30;
	 84	 234	 0.001711	 0.007159	 0	 338	 4292	 4292	 0	 0	 1	-30	 30;
	 84	 247	 0.00545	 0.02381	 0	 300	 1294	 1294	 0	 0	 1	-30	 30;
	 84	 117	 0.000771	 0.004331	 0	 7181	 7181	 7181	 0	 0	 1	-30	 30;
	 84	 72	 0.00414	 0.03282	 0	 453	 955	 955	 0	 0	 1	-30	 30;
	 84	 172	 0.00264	 0.011521	 0	 338	 2673	 2673	 0	 0	 1	-30	 30;
	 84	 175	 0.00261	 0.011	 0	 376	 2795	 2795	 0	 0	 1	-30	 30;
	 84	 215	 0.00239	 0.00919	 0	 319	 3327	 3327	 0	 0	 1	-30	 30;
	 84	 76	 0.000539	 0.00226	 0	 13596	 13596	 13596	 0	 0	 1	-30	 30;
	 84	 191	 0.00325	 0.017979	 0	 472	 1729	 1729	 0	 0	 1	-30	 30;
	 33	 128	 0.00076	 0.0071	 0	 1216	 4424	 4424	 0	 0	 1	-30	 30;
	 23	 215	 0.000651	 0.00343	 0	 9048	 9048	 9048	 0	 0	 1	-30	 30;
	 177	 114	 0.009729	 0.03505	 0	 869	 869	 869	 0	 0	 1	-30	 30;
	 177	 100	 0.01007	 0.03056	 0	 982	 982	 982	 0	 0	 1	-30	 30;
	 152	 200	 0.00195	 0.014341	 0	 338	 2183	 2183	 0	 0	 1	-30	 30;
	 37	 203	 0.00195	 0.02924	 0	 1078	 1078	 1078	 0	 0	 1	-30	 30;
	 37	 56	 0.00152	 0.01527	 0	 1381	 2059	 2059	 0	 0	 1	-30	 30;
	 37	 218	 0.00149	 0.01558	 0	 1513	 2019	 2019	 0	 0	 1	-30	 30;
	 37	 59	 0.00077	 0.0092	 0	 1315	 3422	 3422	 0	 0	 1	-30	 30;
	 37	 118	 0.00112	 0.01705	 0	 657	 1849	 1849	 0	 0	 1	-30	 30;
	 160	 242	 0.00226	 0.01101	 0	 2811	 2811	 2811	 0	 0	 1	-30	 30;
	 160	 232	 0.002081	 0.030409	 0	 1037	 1037	 1037	 0	 0	 1	-30	 30;
	 160	 107	 0.0053	 0.03257	 0	 338	 958	 958	 0	 0	 1	-30	 30;
	 160	 89	 0.00513	 0.041901	 0	 453	 749	 749	 0	 0	 1	-30	 30;
	 160	 134	 0.001461	 0.01056	 0	 357	 2964	 2964	 0	 0	 1	-30	 30;
	 48	 134	 0.00025	 0.00187	 0	 16743	 16743	 16743	 0	 0	 1	-30	 30;
	 224	 142	 0.00336	 0.017	 0	 357	 1823	 1823	 0	 0	 1	-30	 30;
	 140	 1	 0.00045	 0.00608	 0	 1414	 5182	 5182	 0	 0	 1	-30	 30;
	 140	 262	 0.0004	 0.00501	 0	 1249	 6285	 6285	 0	 0	 1	-30	 30;
	 165	 254	 0.001729	 0.01337	 0	 491	 2344	 2344	 0	 0	 1	-30	 30;
	 165	 171	 0.00264	 0.01489	 0	 414	 2089	 2089	 0	 0	 1	-30	 30;
	 165	 25	 0.002341	 0.018961	 0	 414	 1654	 1654	 0	 0	 1	-30	 30;
	 165	 158	 0.001841	 0.01363	 0	 376	 2297	 2297	 0	 0	 1	-30	 30;
	 250	 221	 0.001219	 0.00949	 0	 395	 3302	 3302	 0	 0	 1	-30	 30;
	 250	 254	 0.002271	 0.01151	 0	 395	 2693	 2693	 0	 0	 1	-30	 30;
	 250	 162	 0.010781	 0.05775	 0	 538	 538	 538	 0	 0	 1	-30	 30;
	 250	 178	 0.00251	 0.013919	 0	 300	 2234	 2234	 0	 0	 1	-30	 30;
	 250	 223	 0.00101	 0.007331	 0	 414	 4269	 4269	 0	 0	 1	-30	 30;
	 64	 114	 0.00061	 0.003909	 0	 529	 7985	 7985	 0	 0	 1	-30	 30;
	 109	 174	 0.004289	 0.019331	 0	 1596	 1596	 1596	 0	 0	 1	-30	 30;
	 109	 114	 0.0008	 0.004401	 0	 529	 7062	 7062	 0	 0	 1	-30	 30;
	 109	 136	 0.008099	 0.03519	 0	 510	 875	 875	 0	 0	 1	-30	 30;
	 109	 227	 0.00063	 0.004591	 0	 414	 6817	 6817	 0	 0	 1	-30	 30;
	 73	 227	 0.000651	 0.00456	 0	 6858	 6858	 6858	 0	 0	 1	-30	 30;
	 64	 255	 0.00114	 0.00581	 0	 5335	 5335	 5335	 0	 0	 1	-30	 30;
	 64	 57	 0.001211	 0.00538	 0	 5728	 5728	 5728	 0	 0	 1	-30	 30;
	 97	 254	 0.000219	 0.00088	 0	 395	 34833	 34833	 0	 0	 1	-30	 30;
	 97	 254	 0.000289	 0.00095	 0	 414	 31811	 31811	 0	 0	 1	-30	 30;
	 194	 174	 0.005479	 0.021909	 0	 1399	 1399	 1399	 0	 0	 1	-30	 30;
	 194	 248	 0.003331	 0.017039	 0	 338	 1820	 1820	 0	 0	 1	-30	 30;
	 79	 130	 0.00101	 0.005099	 0	 300	 6077	 6077	 0	 0	 1	-30	 30;
	 122	 43	 3.9e-05	 0.000219	 0	 142001	 142001	 142001	 0	 0	 1	-30	 30;
	 75	 102	 0.00131	 0.00538	 0	 5705	 5705	 5705	 0	 0	 1	-30	 30;
	 168	 192	 0.003341	 0.01689	 0	 1835	 1835	 1835	 0	 0	 1	-30	 30;
	 28	 98	 1e-05	 0.0002	 0	 157740	 157740	 157740	 0	 0	 1	-30	 30;
	 112	 25	 0.000169	 0.000271	 0	 98903	 98903	 98903	 0	 0	 1	-30	 30;
	 127	 25	 0.000169	 0.00031	 0	 89464	 89464	 89464	 0	 0	 1	-30	 30;
	 247	 215	 0.00289	 0.013099	 0	 300	 2355	 2355	 0	 0	 1	-30	 30;
	 82	 90	 0.0027	 0.01157	 0	 2659	 2659	 2659	 0	 0	 1	-30	 30;
	 120	 53	 0.00532	 0.026961	 0	 319	 1150	 1150	 0	 0	 1	-30	 30;
	 120	 53	 0.00361	 0.02814	 0	 453	 1114	 1114	 0	 0	 1	-30	 30;
	 120	 154	 0.002469	 0.01025	 0	 433	 2996	 2996	 0	 0	 1	-30	 30;
	 174	 42	 0.005229	 0.02675	 0	 300	 1159	 1159	 0	 0	 1	-30	 30;
	 174	 42	 0.00512	 0.02726	 0	 319	 1139	 1139	 0	 0	 1	-30	 30;
	 174	 227	 0.00355	 0.01694	 0	 300	 1826	 1826	 0	 0	 1	-30	 30;
	 260	 204	 0.00139	 0.007659	 0	 357	 4058	 4058	 0	 0	 1	-30	 30;
	 260	 110	 0.000169	 0.000669	 0	 414	 45778	 45778	 0	 0	 1	-30	 30;
	 143	 222	 0.001031	 0.006039	 0	 5156	 5156	 5156	 0	 0	 1	-30	 30;
	 35	 222	 0.00105	 0.005909	 0	 5264	 5264	 5264	 0	 0	 1	-30	 30;
	 29	 76	 0.00031	 0.00182	 0	 17110	 17110	 17110	 0	 0	 1	-30	 30;
	 216	 42	 0.00238	 0.01187	 0	 281	 2610	 2610	 0	 0	 1	-30	 30;
	 216	 76	 0.00707	 0.03095	 0	 281	 995	 995	 0	 0	 1	-30	 30;
	 1	 179	 0.00256	 0.03401	 0	 927	 927	 927	 0	 0	 1	-30	 30;
	 1	 63	 0.00203	 0.02416	 0	 1052	 1303	 1303	 0	 0	 1	-30	 30;
	 1	 131	 0.001	 0.01459	 0	 2160	 2160	 2160	 0	 0	 1	-30	 30;
	 1	 119	 0.00103	 0.00987	 0	 1513	 3184	 3184	 0	 0	 1	-30	 30;
	 1	 144	 0.00038	 0.00483	 0	 1348	 6520	 6520	 0	 0	 1	-30	 30;
	 1	 144	 0.00041	 0.00398	 0	 1216	 7895	 7895	 0	 0	 1	-30	 30;
	 219	 63	 0.00167	 0.01721	 0	 1282	 1827	 1827	 0	 0	 1	-30	 30;
	 219	 52	 0.00098	 0.01487	 0	 887	 2120	 2120	 0	 0	 1	-30	 30;
	 219	 262	 0.00042	 0.00342	 0	 1249	 9168	 9168	 0	 0	 1	-30	 30;
	 219	 262	 0.00019	 0.00248	 0	 1480	 12700	 12700	 0	 0	 1	-30	 30;
	 219	 119	 0.00105	 0.00966	 0	 1809	 3251	 3251	 0	 0	 1	-30	 30;
	 219	 98	 0.00043	 0.00473	 0	 1282	 6651	 6651	 0	 0	 1	-30	 30;
	 219	 98	 0.00041	 0.00397	 0	 1216	 7915	 7915	 0	 0	 1	-30	 30;
	 166	 229	 0.01407	 0.056849	 0	 540	 540	 540	 0	 0	 1	-30	 30;
	 166	 129	 0.001669	 0.015409	 0	 510	 2039	 2039	 0	 0	 1	-30	 30;
	 166	 129	 0.001711	 0.015091	 0	 2080	 2080	 2080	 0	 0	 1	-30	 30;
	 96	 231	 0.00033	 0.00683	 0	 821	 4620	 4620	 0	 0	 1	-30	 30;
	 96	 56	 0.00121	 0.01211	 0	 1315	 2596	 2596	 0	 0	 1	-30	 30;
	 96	 218	 0.00123	 0.01185	 0	 1348	 2652	 2652	 0	 0	 1	-30	 30;
	 96	 119	 0.00058	 0.0097	 0	 1085	 3251	 3251	 0	 0	 1	-30	 30;
	 96	 144	 0.00103	 0.01292	 0	 1151	 2438	 2438	 0	 0	 1	-30	 30;
	 96	 98	 0.00116	 0.01266	 0	 821	 2485	 2485	 0	 0	 1	-30	 30;
	 204	 110	 0.0013	 0.006841	 0	 357	 4537	 4537	 0	 0	 1	-30	 30;
	 137	 103	 0.008271	 0.036841	 0	 837	 837	 837	 0	 0	 1	-30	 30;
	 14	 52	 0.0003	 0.00275	 0	 854	 11419	 11419	 0	 0	 1	-30	 30;
	 253	 167	 0.00114	 0.01063	 0	 2955	 2955	 2955	 0	 0	 1	-30	 30;
	 68	 102	 0.00219	 0.015169	 0	 281	 2061	 2061	 0	 0	 1	-30	 30;
	 68	 53	 0.00357	 0.0302	 0	 319	 1039	 1039	 0	 0	 1	-30	 30;
	 208	 89	 0.00113	 0.0065	 0	 4788	 4788	 4788	 0	 0	 1	-30	 30;
	 193	 150	 0.003711	 0.018521	 0	 338	 1673	 1673	 0	 0	 1	-30	 30;
	 193	 34	 0.000271	 0.00145	 0	 357	 21414	 21414	 0	 0	 1	-30	 30;
	 239	 132	 0.00326	 0.01824	 0	 1705	 1705	 1705	 0	 0	 1	-30	 30;
	 252	 200	 0.00118	 0.00712	 0	 319	 4377	 4377	 0	 0	 1	-30	 30;
	 252	 192	 0.00482	 0.02232	 0	 281	 1384	 1384	 0	 0	 1	-30	 30;
	 20	 202	 0.008841	 0.028919	 0	 1045	 1045	 1045	 0	 0	 1	-30	 30;
	 20	 47	 0.00169	 0.007091	 0	 4334	 4334	 4334	 0	 0	 1	-30	 30;
	 20	 187	 0.001031	 0.00361	 0	 8414	 8414	 8414	 0	 0	 1	-30	 30;
	 20	 78	 0.00813	 0.030961	 0	 987	 987	 987	 0	 0	 1	-30	 30;
	 31	 36	 0.00056	 0.00773	 0	 657	 4076	 4076	 0	 0	 1	-30	 30;
	 31	 2	 0.0023	 0.01581	 0	 1118	 1978	 1978	 0	 0	 1	-30	 30;
	 212	 103	 0.005039	 0.032151	 0	 971	 971	 971	 0	 0	 1	-30	 30;
	 212	 4	 0.00364	 0.01713	 0	 357	 1804	 1804	 0	 0	 1	-30	 30;
	 212	 44	 0.002169	 0.012409	 0	 2508	 2508	 2508	 0	 0	 1	-30	 30;
	 70	 229	 0.00494	 0.03181	 0	 376	 982	 982	 0	 0	 1	-30	 30;
	 70	 53	 0.003711	 0.023961	 0	 510	 1303	 1303	 0	 0	 1	-30	 30;
	 179	 123	 3e-05	 0.00054	 0	 1776	 58406	 58406	 0	 0	 1	-30	 30;
	 179	 201	 3e-05	 0.00055	 0	 1710	 57347	 57347	 0	 0	 1	-30	 30;
	 179	 101	 4e-05	 0.00058	 0	 1677	 54332	 54332	 0	 0	 1	-30	 30;
	 179	 151	 4e-05	 0.00054	 0	 1776	 58336	 58336	 0	 0	 1	-30	 30;
	 179	 119	 0.00171	 0.02197	 0	 1282	 1434	 1434	 0	 0	 1	-30	 30;
	 179	 119	 0.00164	 0.02064	 0	 1526	 1526	 1526	 0	 0	 1	-30	 30;
	 179	 13	 0.00097	 0.00942	 0	 1381	 3336	 3336	 0	 0	 1	-30	 30;
	 179	 13	 0.00086	 0.01109	 0	 1381	 2840	 2840	 0	 0	 1	-30	 30;
	 179	 13	 0.00085	 0.0113	 0	 1348	 2788	 2788	 0	 0	 1	-30	 30;
	 92	 191	 0.000979	 0.0058	 0	 300	 5371	 5371	 0	 0	 1	-30	 30;
	 63	 49	 0.00052	 0.00593	 0	 1809	 5307	 5307	 0	 0	 1	-30	 30;
	 63	 49	 0.00046	 0.00672	 0	 1809	 4690	 4690	 0	 0	 1	-30	 30;
	 150	 246	 0.001151	 0.00636	 0	 472	 4888	 4888	 0	 0	 1	-30	 30;
	 150	 246	 0.001031	 0.007211	 0	 491	 4337	 4337	 0	 0	 1	-30	 30;
	 150	 132	 0.002341	 0.02286	 0	 433	 1375	 1375	 0	 0	 1	-30	 30;
	 150	 34	 0.002281	 0.02518	 0	 300	 1250	 1250	 0	 0	 1	-30	 30;
	 150	 47	 0.005479	 0.02114	 0	 281	 1447	 1447	 0	 0	 1	-30	 30;
	 150	 159	 0.000669	 0.00249	 0	 300	 12252	 12252	 0	 0	 1	-30	 30;
	 150	 225	 0.00193	 0.01643	 0	 472	 1910	 1910	 0	 0	 1	-30	 30;
	 150	 78	 0.00024	 0.0017	 0	 338	 18399	 18399	 0	 0	 1	-30	 30;
	 229	 81	 0.005831	 0.03969	 0	 395	 788	 788	 0	 0	 1	-30	 30;
	 229	 243	 0.00087	 0.00661	 0	 357	 4738	 4738	 0	 0	 1	-30	 30;
	 229	 154	 0.00637	 0.024659	 0	 281	 1241	 1241	 0	 0	 1	-30	 30;
	 51	 131	 0.00099	 0.01194	 0	 1545	 2637	 2637	 0	 0	 1	-30	 30;
	 51	 128	 0.00077	 0.01184	 0	 2663	 2663	 2663	 0	 0	 1	-30	 30;
	 51	 144	 0.00034	 0.00426	 0	 7392	 7392	 7392	 0	 0	 1	-30	 30;
	 106	 52	 0.00101	 0.01168	 0	 1644	 2695	 2695	 0	 0	 1	-30	 30;
	 106	 128	 0.00086	 0.01046	 0	 1710	 3010	 3010	 0	 0	 1	-30	 30;
	 106	 98	 0.00035	 0.00417	 0	 7549	 7549	 7549	 0	 0	 1	-30	 30;
	 126	 188	 0.000591	 0.00105	 0	 26216	 26216	 26216	 0	 0	 1	-30	 30;
	 182	 42	 0.000581	 0.004419	 0	 7088	 7088	 7088	 0	 0	 1	-30	 30;
	 173	 42	 0.000651	 0.004331	 0	 7213	 7213	 7213	 0	 0	 1	-30	 30;
	 11	 129	 0.001271	 0.00939	 0	 3334	 3334	 3334	 0	 0	 1	-30	 30;
	 254	 184	 0.000841	 0.00131	 0	 20291	 20291	 20291	 0	 0	 1	-30	 30;
	 230	 58	 0.00038	 0.001479	 0	 20686	 20686	 20686	 0	 0	 1	-30	 30;
	 231	 119	 0.0002	 0.00327	 0	 9642	 9642	 9642	 0	 0	 1	-30	 30;
	 22	 54	 0.000919	 0.00561	 0	 433	 5557	 5557	 0	 0	 1	-30	 30;
	 22	 54	 0.00094	 0.00549	 0	 433	 5672	 5672	 0	 0	 1	-30	 30;
	 22	 214	 0.00175	 0.01976	 0	 433	 1593	 1593	 0	 0	 1	-30	 30;
	 22	 185	 0.001729	 0.019331	 0	 376	 1628	 1628	 0	 0	 1	-30	 30;
	 195	 198	 0.005461	 0.029469	 0	 319	 1054	 1054	 0	 0	 1	-30	 30;
	 195	 89	 0.001979	 0.011289	 0	 491	 2757	 2757	 0	 0	 1	-30	 30;
	 246	 183	 0.00224	 0.012909	 0	 510	 2411	 2411	 0	 0	 1	-30	 30;
	 67	 210	 0.001539	 0.00776	 0	 3993	 3993	 3993	 0	 0	 1	-30	 30;
	 207	 161	 0.004349	 0.02555	 0	 433	 1219	 1219	 0	 0	 1	-30	 30;
	 207	 213	 0.00599	 0.03462	 0	 376	 900	 900	 0	 0	 1	-30	 30;
	 139	 235	 0.00563	 0.043599	 0	 719	 719	 719	 0	 0	 1	-30	 30;
	 139	 134	 0.000969	 0.00612	 0	 414	 5098	 5098	 0	 0	 1	-30	 30;
	 188	 183	 0.00037	 0.002831	 0	 453	 11064	 11064	 0	 0	 1	-30	 30;
	 188	 156	 0.00213	 0.012789	 0	 414	 2437	 2437	 0	 0	 1	-30	 30;
	 26	 257	 3.9e-05	 0.000401	 0	 78402	 78402	 78402	 0	 0	 1	-30	 30;
	 113	 257	 6e-05	 0.00044	 0	 281	 71132	 71132	 0	 0	 1	-30	 30;
	 189	 54	 6e-05	 0.0005	 0	 414	 62725	 62725	 0	 0	 1	-30	 30;
	 142	 156	 0.001091	 0.00831	 0	 376	 3769	 3769	 0	 0	 1	-30	 30;
	 72	 236	 0.004599	 0.03657	 0	 453	 857	 857	 0	 0	 1	-30	 30;
	 72	 238	 0.00307	 0.019159	 0	 491	 1628	 1628	 0	 0	 1	-30	 30;
	 72	 30	 0.000581	 0.004461	 0	 414	 7022	 7022	 0	 0	 1	-30	 30;
	 72	 191	 0.00164	 0.01161	 0	 491	 2694	 2694	 0	 0	 1	-30	 30;
...
];

mpc_regionR1.gencost = [
%	2           startup     shutdown    n           c(n-1)...c0 
	 2	 0	 0	 3	 0	 10.258323	 0;
	 2	 0	 0	 3	 0	 35.739304	 0;
	 2	 0	 0	 3	 0	 25.382856	 0;
	 2	 0	 0	 3	 0	 22.57053	 0;
	 2	 0	 0	 3	 0	 14.602967	 0;
	 2	 0	 0	 3	 0	 19.829521	 0;
	 2	 0	 0	 3	 0	 45.48034	 0;
	 2	 0	 0	 3	 0	 48.260283	 0;
	 2	 0	 0	 3	 0	 28.185912	 0;
	 2	 0	 0	 3	 0	 17.693424	 0;
	 2	 0	 0	 3	 0	 38.064806	 0;
	 2	 0	 0	 3	 0	 42.531078	 0;
	 2	 0	 0	 3	 0	 32.283038	 0;
	 2	 0	 0	 3	 0	 41.981874	 0;
	 2	 0	 0	 3	 0	 21.265424	 0;
	 2	 0	 0	 3	 0	 32.470152	 0;
	 2	 0	 0	 3	 0	 38.427501	 0;
	 2	 0	 0	 3	 0	 32.089221	 0;
	 2	 0	 0	 3	 0	 36.44582	 0;
	 2	 0	 0	 3	 0	 27.474887	 0;
	 2	 0	 0	 3	 0	 27.672537	 0;
	 2	 0	 0	 3	 0	 37.476158	 0;
	 2	 0	 0	 3	 0	 38.32436	 0;
	 2	 0	 0	 3	 0	 33.066585	 0;
	 2	 0	 0	 3	 0	 15.138451	 0;
	 2	 0	 0	 3	 0	 22.902755	 0;
	 2	 0	 0	 3	 0	 30.64784	 0;
	 2	 0	 0	 3	 0	 38.31144	 0;
	 2	 0	 0	 3	 0	 7.517541	 0;
	 2	 0	 0	 3	 0	 14.951813	 0;
	 2	 0	 0	 3	 0	 24.810462	 0;
	 2	 0	 0	 3	 0	 79.708144	 0;
	 2	 0	 0	 3	 0	 7.253371	 0;
	 2	 0	 0	 3	 0	 100.586864	 0;
	 2	 0	 0	 3	 0	 39.446996	 0;
	 2	 0	 0	 3	 0	 30.90988	 0;
	 2	 0	 0	 3	 0	 35.965332	 0;
	 2	 0	 0	 3	 0	 7.051011	 0;
	 2	 0	 0	 3	 0	 42.356822	 0;
	 2	 0	 0	 3	 0	 30.938094	 0;
	 2	 0	 0	 3	 0	 28.931033	 0;
	 2	 0	 0	 3	 0	 8.0167	 0;
	 2	 0	 0	 3	 0	 25.107671	 0;
	 2	 0	 0	 3	 0	 17.378434	 0;
	 2	 0	 0	 3	 0	 36.694475	 0;
	 2	 0	 0	 3	 0	 29.670276	 0;
	 2	 0	 0	 3	 0	 33.798273	 0;
	 2	 0	 0	 3	 0	 41.060039	 0;
	 2	 0	 0	 3	 0	 33.555466	 0;
	 2	 0	 0	 3	 0	 25.704435	 0;
	 2	 0	 0	 3	 0	 48.679477	 0;
	 2	 0	 0	 3	 0	 4.688	 0;
	 2	 0	 0	 3	 0	 15.196866	 0;
	 2	 0	 0	 3	 0	 31.536394	 0;
	 2	 0	 0	 3	 0	 36.290422	 0;
	 2	 0	 0	 3	 0	 25.524756	 0;
	 2	 0	 0	 3	 0	 14.275729	 0;
	 2	 0	 0	 3	 0	 114.612148	 0;
	 2	 0	 0	 3	 0	 32.065876	 0;
	 2	 0	 0	 3	 0	 58.771001	 0;
	 2	 0	 0	 3	 0	 20.730786	 0;
	 2	 0	 0	 3	 0	 30.862032	 0;
	 2	 0	 0	 3	 0	 108.591549	 0;
	 2	 0	 0	 3	 0	 27.043459	 0;
	 2	 0	 0	 3	 0	 30.046106	 0;
	 2	 0	 0	 3	 0	 35.338887	 0;
	 2	 0	 0	 3	 0	 16.624602	 0;
	 2	 0	 0	 3	 0	 37.11068	 0;
	 2	 0	 0	 3	 0	 45.891711	 0;
	 2	 0	 0	 3	 0	 18.694214	 0;
	 2	 0	 0	 3	 0	 29.775924	 0;
	 2	 0	 0	 3	 0	 32.154391	 0;
	 2	 0	 0	 3	 0	 20.431142	 0;
	 2	 0	 0	 3	 0	 25.290669	 0;
	 2	 0	 0	 3	 0	 32.955551	 0;
	 2	 0	 0	 3	 0	 29.401074	 0;
	 2	 0	 0	 3	 0	 40.538048	 0;
];


% -------------------- mpc_regionR2 --------------------

mpc_regionR2.version = '2';
mpc_regionR2.baseMVA = 100.0000;
mpc_regionR2.bus = [
%	bus_i       type        Pd          Qd          Gs          Bs          area        Vm          Va          baseKV      zone        Vmax        Vmin        
	 1	 1	 171.41	 23.4	 0	 2.1	 0	 1	 0	 220	 5	 1.1	 0.9;
	 2	 1	 48.65	 16.1	 0	 7.14	 0	 1	 0	 220	 5	 1.1	 0.9;
	 3	 1	 32.34	 12	 0	 6.1	 0	 1	 0	 220	 5	 1.1	 0.9;
	 4	 1	 73.14	 21.55	 0	 8.52	 0	 1	 0	 220	 5	 1.1	 0.9;
	 5	 1	-0	 0	 0	 1.96	 0	 1	 0	 220	 5	 1.1	 0.9;
	 6	 1	 57.46	 17.1	 0	 1.61	 0	 1	 0	 220	 5	 1.1	 0.9;
	 7	 1	 0	-0	 0	 5.15	 0	 1	 0	 220	 5	 1.1	 0.9;
	 8	 1	 0	-0	 0	 0.32	 0	 1	 0	 220	 5	 1.1	 0.9;
	 9	 2	 0	 0	 0	 0	 0	 1	 0	 220	 5	 1.1	 0.9;
	 10	 2	 0	 0	 0	 0	 0	 1	 0	 220	 5	 1.1	 0.9;
	 11	 1	-0	-0	 0	 23.554121	 0	 1	 0	 380	 5	 1.1	 0.9;
	 12	 1	-0	 0	 0	 7.85	 0	 1	 0	 220	 5	 1.1	 0.9;
	 13	 1	 108.89	-21.76	 0	 3.72	 0	 1	 0	 220	 5	 1.1	 0.9;
	 14	 1	 0	 0	 0	 0.15	 0	 1	 0	 220	 5	 1.1	 0.9;
	 15	 1	 125.9	-0.5	 0	 0.21	 0	 1	 0	 220	 5	 1.1	 0.9;
	 16	 2	 0	 0	 0	 0	 0	 1	 0	 220	 5	 1.1	 0.9;
	 17	 2	 0	 0	 0	 0	 0	 1	 0	 220	 5	 1.1	 0.9;
	 18	 1	 73.18	 22.3	 0	 8.77	 0	 1	 0	 220	 5	 1.1	 0.9;
	 19	 1	 25.13	-61.6	 0	 3.68	 0	 1	 0	 220	 5	 1.1	 0.9;
	 20	 1	 88.92	 19.79	 0	 2.81	 0	 1	 0	 220	 5	 1.1	 0.9;
	 21	 1	-0	-0	 0	 1.18	 0	 1	 0	 380	 5	 1.1	 0.9;
	 22	 1	-0	 0	 0	 7.338808	 0	 1	 0	 380	 5	 1.1	 0.9;
	 23	 1	 120.2	 20.5	 0	 19.94	 0	 1	 0	 220	 5	 1.1	 0.9;
	 24	 1	 74.98	 26.9	 0	 2.96	 0	 1	 0	 220	 5	 1.1	 0.9;
	 25	 2	 0	 0	 0	 0	 0	 1	 0	 220	 5	 1.1	 0.9;
	 26	 1	 39.64	 20.9	 0	 0.65	 0	 1	 0	 220	 5	 1.1	 0.9;
	 27	 1	 16.9	 3.85	 0	 25.09	 0	 1	 0	 220	 5	 1.1	 0.9;
	 28	 1	 0	 0	 0	 0.21	 0	 1	 0	 220	 5	 1.1	 0.9;
	 29	 1	-0	 0	 0	 10.040547	 0	 1	 0	 380	 5	 1.1	 0.9;
	 30	 1	 55.56	 26.5	 0	 1.09	 0	 1	 0	 220	 5	 1.1	 0.9;
	 31	 2	 0	 0	 0	 0	 0	 1	 0	 220	 5	 1.1	 0.9;
	 32	 1	-0	 0	 0	 4.21	 0	 1	 0	 220	 5	 1.1	 0.9;
	 33	 2	 0	 0	 0	 0	 0	 1	 0	 220	 5	 1.1	 0.9;
	 34	 2	 0	 0	 0	 0	 0	 1	 0	 220	 5	 1.1	 0.9;
	 35	 1	-0	-0	 0	 11.03	 0	 1	 0	 220	 5	 1.1	 0.9;
	 36	 2	 0	 0	 0	 0	 0	 1	 0	 220	 5	 1.1	 0.9;
	 37	 1	 2.2	 1.1	 0	 0.67	 0	 1	 0	 220	 5	 1.1	 0.9;
	 38	 1	 92.9	 27.7	 0	 5.22	 0	 1	 0	 220	 5	 1.1	 0.9;
	 39	 2	 0	 0	 0	 0	 0	 1	 0	 220	 5	 1.1	 0.9;
	 40	 1	 242.16	 73.64	 0	 12.79	 0	 1	 0	 220	 5	 1.1	 0.9;
	 41	 2	 0	 0	 0	 0	 0	 1	 0	 220	 5	 1.1	 0.9;
	 42	 2	 0	 0	 0	 0	 0	 1	 0	 220	 5	 1.1	 0.9;
	 43	 1	 87.2	 31.8	 0	 5.96	 0	 1	 0	 220	 5	 1.1	 0.9;
	 44	 1	 37.54	 18.3	 0	 0.22	 0	 1	 0	 220	 5	 1.1	 0.9;
	 45	 2	 0	 0	 0	 0	 0	 1	 0	 220	 5	 1.1	 0.9;
	 46	 1	 77.49	 17.3	 0	 0.1	 0	 1	 0	 220	 5	 1.1	 0.9;
	 47	 1	-0	-0	 0	 26.98	 0	 1	 0	 220	 5	 1.1	 0.9;
	 48	 2	 0	 0	 0	 0	 0	 1	 0	 220	 5	 1.1	 0.9;
	 49	 1	 0	-0	 0	 6.42	 0	 1	 0	 220	 5	 1.1	 0.9;
	 50	 1	-0	 0	 0	 2.08	 0	 1	 0	 220	 5	 1.1	 0.9;
	 51	 2	 0	 0	 0	 0	 0	 1	 0	 220	 5	 1.1	 0.9;
	 52	 1	 310.2	 4.5	 0	 8.51	 0	 1	 0	 220	 5	 1.1	 0.9;
	 53	 1	 9.01	 4.9	 0	 0.64	 0	 1	 0	 220	 5	 1.1	 0.9;
	 54	 1	 5.81	 1.7	 0	 0.42	 0	 1	 0	 220	 5	 1.1	 0.9;
	 55	 1	 190.7	 52	 0	 20.57	 0	 1	 0	 220	 5	 1.1	 0.9;
	 56	 1	 235	 58.9	 0	 14.47	 0	 1	 0	 220	 5	 1.1	 0.9;
	 57	 2	 0	 0	 0	 0	 0	 1	 0	 220	 5	 1.1	 0.9;
	 58	 1	 69.78	 25	 0	 14.24	 0	 1	 0	 220	 5	 1.1	 0.9;
	 59	 1	 95.51	 17.1	 0	 8.5	 0	 1	 0	 220	 5	 1.1	 0.9;
	 60	 1	-0	 0	 0	 6.12	 0	 1	 0	 220	 5	 1.1	 0.9;
	 61	 1	 109.7	 15	 0	 30.97	 0	 1	 0	 220	 5	 1.1	 0.9;
	 62	 1	 101.89	 25.72	 0	 5.11	 0	 1	 0	 220	 5	 1.1	 0.9;
	 63	 2	 0	 0	 0	 0	 0	 1	 0	 220	 5	 1.1	 0.9;
	 64	 1	 312.2	 28	 0	 48.6	 0	 1	 0	 220	 5	 1.1	 0.9;
	 65	 1	-0	 0	 0	 4.34	 0	 1	 0	 220	 5	 1.1	 0.9;
	 66	 2	 0	 0	 0	 0	 0	 1	 0	 220	 5	 1.1	 0.9;
	 67	 1	 179.8	 5.67	 0	 12.83	 0	 1	 0	 220	 5	 1.1	 0.9;
	 68	 1	 0	-0	 0	 70.905048	 0	 1	 0	 380	 5	 1.1	 0.9;
	 69	 2	 0	 0	 0	 0	 0	 1	 0	 220	 5	 1.1	 0.9;
	 70	 1	 0	 0	 0	 28.208233	 0	 1	 0	 380	 5	 1.1	 0.9;
	 71	 1	-0	 0	 0	 9.43	 0	 1	 0	 220	 5	 1.1	 0.9;
	 72	 1	-15.89	-6.42	 0	 38.657071	 0	 1	 0	 380	 5	 1.1	 0.9;
	 73	 1	-0	-0	 0	 1.18	 0	 1	 0	 220	 5	 1.1	 0.9;
	 74	 2	 0	 0	 0	 0	 0	 1	 0	 220	 5	 1.1	 0.9;
	 75	 1	-0	 0	 0	 0.59	 0	 1	 0	 220	 5	 1.1	 0.9;
	 76	 1	 337.6	-15.4	 0	 6.27	 0	 1	 0	 220	 5	 1.1	 0.9;
	 77	 2	 0	 0	 0	 0	 0	 1	 0	 220	 5	 1.1	 0.9;
	 78	 2	 0	 0	 0	 0	 0	 1	 0	 380	 5	 1.1	 0.9;
	 79	 1	 93.12	 4.99	 0	 0.18	 0	 1	 0	 220	 5	 1.1	 0.9;
	 80	 1	 47.65	 20.4	 0	 3.63	 0	 1	 0	 220	 5	 1.1	 0.9;
	 81	 2	 0	 0	 0	 0	 0	 1	 0	 220	 5	 1.1	 0.9;
	 82	 2	 0	 0	 0	 0	 0	 1	 0	 220	 5	 1.1	 0.9;
	 83	 1	-0	-0	 0	 4.61	 0	 1	 0	 220	 5	 1.1	 0.9;
	 84	 1	 0	-0	 0	 4.05	 0	 1	 0	 220	 5	 1.1	 0.9;
	 85	 1	 41.14	 15.25	 0	 3.96	 0	 1	 0	 220	 5	 1.1	 0.9;
	 86	 1	-0	-0	 0	 10.67	 0	 1	 0	 220	 5	 1.1	 0.9;
	 87	 1	 0	 0	 0	 6.57	 0	 1	 0	 380	 5	 1.1	 0.9;
	 88	 2	 0	 0	 0	 0	 0	 1	 0	 220	 5	 1.1	 0.9;
	 89	 1	-37.34	-13.33	 0	 251.529665	 0	 1	 0	 380	 5	 1.1	 0.9;
	 90	 1	 0	 0	 0	 0.19	 0	 1	 0	 220	 5	 1.1	 0.9;
	 91	 1	 258.79	 42.82	 0	 9.28	 0	 1	 0	 220	 5	 1.1	 0.9;
	 92	 1	 142.9	 25.8	 0	 24.18	 0	 1	 0	 220	 5	 1.1	 0.9;
	 93	 1	-0	 0	 0	 2.48	 0	 1	 0	 220	 5	 1.1	 0.9;
	 94	 1	 82.39	 0	 0	 0.15	 0	 1	 0	 220	 5	 1.1	 0.9;
	 95	 1	 0	 0	 0	 0.41	 0	 1	 0	 220	 5	 1.1	 0.9;
	 96	 1	-18.95	-6.93	 0	 33.11439	 0	 1	 0	 380	 5	 1.1	 0.9;
	 97	 2	 0	 0	 0	 0	 0	 1	 0	 380	 5	 1.1	 0.9;
	 98	 1	 40.85	 15.7	 0	 2.08	 0	 1	 0	 220	 5	 1.1	 0.9;
	 99	 1	 0	 0	 0	 0.17	 0	 1	 0	 220	 5	 1.1	 0.9;
	 100	 1	 36.94	 11	 0	 0.52	 0	 1	 0	 220	 5	 1.1	 0.9;
	 101	 2	 0	 0	 0	 0	 0	 1	 0	 220	 5	 1.1	 0.9;
	 102	 1	 0	-0	 0	 9.54	 0	 1	 0	 220	 5	 1.1	 0.9;
	 103	 1	 0	 0	 0	 11.38	 0	 1	 0	 220	 5	 1.1	 0.9;
	 104	 1	 0	-0	 0	 39.58	 0	 1	 0	 380	 5	 1.1	 0.9;
	 105	 2	 0	 0	 0	 0	 0	 1	 0	 380	 5	 1.1	 0.9;
	 106	 2	 0	 0	 0	 0	 0	 1	 0	 220	 5	 1.1	 0.9;
	 107	 1	 196.1	 32.1	 0	 3.86	 0	 1	 0	 220	 5	 1.1	 0.9;
	 108	 1	 0	 0	 0	 2.46	 0	 1	 0	 220	 5	 1.1	 0.9;
	 109	 1	 0	-0	 0	 4.55	 0	 1	 0	 220	 5	 1.1	 0.9;
	 110	 1	 74.98	 10.5	 0	 12.96	 0	 1	 0	 220	 5	 1.1	 0.9;
	 111	 2	 0	 0	 0	 0	 0	 1	 0	 220	 5	 1.1	 0.9;
	 112	 1	-0	-0	 0	 11.69	 0	 1	 0	 220	 5	 1.1	 0.9;
	 113	 1	 208.7	 63	 0	 3.45	 0	 1	 0	 220	 5	 1.1	 0.9;
	 114	 1	 63.31	-9.8	 0	 5.36	 0	 1	 0	 220	 5	 1.1	 0.9;
	 115	 1	 285.2	 61.4	 0	 26.04	 0	 1	 0	 220	 5	 1.1	 0.9;
	 116	 1	 278.3	 33.6	 0	 25.9	 0	 1	 0	 220	 5	 1.1	 0.9;
	 117	 1	 55.46	 16.9	 0	 1.92	 0	 1	 0	 220	 5	 1.1	 0.9;
	 118	 1	 245.51	 9.17	 0	 24.25	 0	 1	 0	 220	 5	 1.1	 0.9;
	 119	 2	 0	 0	 0	 0	 0	 1	 0	 220	 5	 1.1	 0.9;
	 120	 2	 0	 0	 0	 0	 0	 1	 0	 220	 5	 1.1	 0.9;
];

mpc_regionR2.gen = [
%	bus         Pg          Qg          Qmax        Qmin        Vg          mBase       status      Pmax        Pmin        Pc1         Pc2         Qc1min      Qc1max      Qc2min      Qc2max      ramp_agc    ramp_10     ramp_30     ramp_q      apf         
	 9	 19.2	 48.31	 135.52	-38.9	 1	 100	 1	 100	-61.6;
	 10	 40	 13.855	 38.77	-11.06	 1	 100	 1	 80	 0;
	 16	-114.335	 13.175	 38.08	-11.73	 1	 100	 1	 100	-328.67;
	 17	 40	 12.745	 37.66	-12.17	 1	 100	 1	 80	 0;
	 25	 100	 33.38	 95.69	-28.93	 1	 100	 1	 200	 0;
	 31	 20	 5.725	 18.19	-6.74	 1	 100	 1	 40	 0;
	 33	 4.525	 0.385	 3.31	-2.54	 1	 100	 1	 9.05	 0;
	 34	 107.43	 2.12	 72.95	-68.71	 1	 100	 1	 214.86	 0;
	 36	 246.675	 25.895	 184.46	-132.67	 1	 100	 1	 493.35	 0;
	 39	 20	 4.86	 17.33	-7.61	 1	 100	 1	 40	 0;
	 41	 120	 39.205	 113.97	-35.56	 1	 100	 1	 240	 0;
	 42	 800	 183.04	 550.97	-184.89	 1	 100	 1	 1200	 400;
	 45	 32.535	 41.375	 116.07	-33.32	 1	 100	 1	 100	-34.93;
	 48	-39.665	 18.29	 55.67	-19.09	 1	 100	 1	 100	-179.33;
	 51	 300	 80.6	 264.94	-103.74	 1	 100	 1	 600	 0;
	 57	 40	 13.95	 38.85	-10.95	 1	 100	 1	 80	 0;
	 63	 5.23	 1.185	 4.44	-2.07	 1	 100	 1	 10.46	 0;
	 66	 110.06	 2.16	 74.73	-70.41	 1	 100	 1	 220.12	 0;
	 69	-56	 11.47	 36.37	-13.43	 1	 100	 1	 100	-212;
	 74	 80	 22.83	 72.71	-27.05	 1	 100	 1	 160	 0;
	 77	 40	 11.795	 36.72	-13.13	 1	 100	 1	 80	 0;
	 78	 600	 114.62	 390.4	-161.16	 1	 100	 1	 900	 300;
	 81	 40	 13.365	 38.29	-11.56	 1	 100	 1	 80	 0;
	 82	 666.665	 132.285	 438.72	-174.15	 1	 100	 1	 1000	 333.33;
	 88	 60	 15.885	 53.24	-21.47	 1	 100	 1	 120	 0;
	 97	 533.335	 104.815	 350.36	-140.73	 1	 100	 1	 800	 266.67;
	 101	 32	 25.855	 75.67	-23.96	 1	 100	 1	 100	-36;
	 105	 40	 10.855	 35.76	-14.05	 1	 100	 1	 80	 0;
	 106	 20	 7.035	 19.49	-5.42	 1	 100	 1	 40	 0;
	 111	-42.2	 12.47	 37.4	-12.46	 1	 100	 1	 100	-184.4;
	 119	 25.2	 23.355	 73.19	-26.48	 1	 100	 1	 100	-49.6;
	 120	 80	 27.86	 77.69	-21.97	 1	 100	 1	 160	 0;
];

mpc_regionR2.branch = [
%	fbus        tbus        r           x           b           rateA       rateB       rateC       ratio       angle       status      angmin      angmax      
	 87	 78	 0.0002	 0.00246	 0	 657	 12799	 12799	 0	 0	 1	-30	 30;
	 87	 89	 0.0003	 0.00377	 0	 1315	 8353	 8353	 0	 0	 1	-30	 30;
	 61	 64	 0.00074	 0.00311	 0	 9881	 9881	 9881	 0	 0	 1	-30	 30;
	 61	 64	 0.000729	 0.003159	 0	 9744	 9744	 9744	 0	 0	 1	-30	 30;
	 119	 5	 0.00193	 0.012479	 0	 491	 2502	 2502	 0	 0	 1	-30	 30;
	 119	 37	 0.001159	 0.007229	 0	 4315	 4315	 4315	 0	 0	 1	-30	 30;
	 119	 35	 0.00137	 0.008729	 0	 395	 3575	 3575	 0	 0	 1	-30	 30;
	 119	 35	 0.001401	 0.00855	 0	 433	 3646	 3646	 0	 0	 1	-30	 30;
	 119	 35	 0.001331	 0.008521	 0	 433	 3663	 3663	 0	 0	 1	-30	 30;
	 92	 24	 0.00031	 0.00081	 0	 281	 36421	 36421	 0	 0	 1	-30	 30;
	 92	 102	 0.000341	 0.00119	 0	 281	 25518	 25518	 0	 0	 1	-30	 30;
	 92	 58	 0.00031	 0.001281	 0	 376	 23967	 23967	 0	 0	 1	-30	 30;
	 92	 55	 0.00094	 0.0035	 0	 433	 8717	 8717	 0	 0	 1	-30	 30;
	 79	 13	 0.000479	 0.00255	 0	 357	 12175	 12175	 0	 0	 1	-30	 30;
	 99	 13	 0.000469	 0.00236	 0	 13128	 13128	 13128	 0	 0	 1	-30	 30;
	 48	 51	 0.00026	 0.001711	 0	 18252	 18252	 18252	 0	 0	 1	-30	 30;
	 48	 51	 0.000271	 0.001669	 0	 18682	 18682	 18682	 0	 0	 1	-30	 30;
	 88	 69	 0.000211	 0.000401	 0	 69711	 69711	 69711	 0	 0	 1	-30	 30;
	 17	 5	 0.000229	 0.00139	 0	 376	 22423	 22423	 0	 0	 1	-30	 30;
	 31	 5	 0.0002	 0.00156	 0	 338	 20084	 20084	 0	 0	 1	-30	 30;
	 16	 6	 0.00145	 0.00824	 0	 281	 3776	 3776	 0	 0	 1	-30	 30;
	 16	 5	 0.00069	 0.005	 0	 491	 6259	 6259	 0	 0	 1	-30	 30;
	 11	 70	 0.0015	 0.01785	 0	 1183	 1764	 1764	 0	 0	 1	-30	 30;
	 11	 70	 0.00147	 0.0182	 0	 1151	 1730	 1730	 0	 0	 1	-30	 30;
	 19	 9	 0.00151	 0.0113	 0	 376	 2771	 2771	 0	 0	 1	-30	 30;
	 19	 9	 0.001479	 0.011521	 0	 395	 2720	 2720	 0	 0	 1	-30	 30;
	 19	 118	 0.00174	 0.010341	 0	 414	 3013	 3013	 0	 0	 1	-30	 30;
	 19	 118	 0.001659	 0.01206	 0	 453	 2595	 2595	 0	 0	 1	-30	 30;
	 110	 116	 0.00061	 0.00275	 0	 357	 11214	 11214	 0	 0	 1	-30	 30;
	 70	 29	 0.0007	 0.00671	 0	 1447	 4683	 4683	 0	 0	 1	-30	 30;
	 70	 29	 0.00072	 0.00658	 0	 1480	 4773	 4773	 0	 0	 1	-30	 30;
	 27	 64	 0.001901	 0.00964	 0	 529	 3215	 3215	 0	 0	 1	-30	 30;
	 27	 67	 0.001711	 0.01189	 0	 510	 2630	 2630	 0	 0	 1	-30	 30;
	 53	 73	 0.00043	 0.002211	 0	 14024	 14024	 14024	 0	 0	 1	-30	 30;
	 75	 111	 0.000401	 0.00243	 0	 12826	 12826	 12826	 0	 0	 1	-30	 30;
	 96	 68	 0.00109	 0.01629	 0	 723	 1935	 1935	 0	 0	 1	-30	 30;
	 96	 104	 4e-05	 0.00063	 0	 1710	 50038	 50038	 0	 0	 1	-30	 30;
	 7	 80	 0.0053	 0.024531	 0	 472	 1259	 1259	 0	 0	 1	-30	 30;
	 7	 25	 0.004659	 0.021919	 0	 319	 1410	 1410	 0	 0	 1	-30	 30;
	 7	 45	 0.001659	 0.01043	 0	 472	 2991	 2991	 0	 0	 1	-30	 30;
	 65	 52	 0.006961	 0.053539	 0	 395	 586	 586	 0	 0	 1	-30	 30;
	 74	 73	 0.00089	 0.004091	 0	 338	 7545	 7545	 0	 0	 1	-30	 30;
	 57	 111	 0.00093	 0.004	 0	 300	 7692	 7692	 0	 0	 1	-30	 30;
	 106	 45	 0.001159	 0.005281	 0	 5843	 5843	 5843	 0	 0	 1	-30	 30;
	 43	 9	 0.000909	 0.006901	 0	 414	 4539	 4539	 0	 0	 1	-30	 30;
	 43	 64	 0.001729	 0.01214	 0	 414	 2576	 2576	 0	 0	 1	-30	 30;
	 15	 82	 0.00031	 0.001901	 0	 433	 16400	 16400	 0	 0	 1	-30	 30;
	 90	 82	 0.000281	 0.002091	 0	 14972	 14972	 14972	 0	 0	 1	-30	 30;
	 54	 83	 0.000281	 0.001651	 0	 18862	 18862	 18862	 0	 0	 1	-30	 30;
	 95	 83	 0.000271	 0.00169	 0	 18455	 18455	 18455	 0	 0	 1	-30	 30;
	 46	 112	 0.00019	 0.00126	 0	 414	 24790	 24790	 0	 0	 1	-30	 30;
	 14	 86	 0.000219	 0.00143	 0	 21835	 21835	 21835	 0	 0	 1	-30	 30;
	 102	 93	 0.00011	 0.0005	 0	 61700	 61700	 61700	 0	 0	 1	-30	 30;
	 52	 115	 0.001409	 0.01101	 0	 357	 2846	 2846	 0	 0	 1	-30	 30;
	 52	 18	 0.001169	 0.00593	 0	 281	 5227	 5227	 0	 0	 1	-30	 30;
	 52	 18	 0.00118	 0.00587	 0	 5276	 5276	 5276	 0	 0	 1	-30	 30;
	 52	 47	 0.00264	 0.012469	 0	 433	 2479	 2479	 0	 0	 1	-30	 30;
	 52	 47	 0.002349	 0.01414	 0	 395	 2204	 2204	 0	 0	 1	-30	 30;
	 60	 4	 0.010159	 0.065849	 0	 475	 475	 475	 0	 0	 1	-30	 30;
	 6	 32	 0.001289	 0.008289	 0	 395	 3766	 3766	 0	 0	 1	-30	 30;
	 120	 4	 0.00238	 0.013219	 0	 357	 2352	 2352	 0	 0	 1	-30	 30;
	 120	 41	 0.003771	 0.02701	 0	 395	 1159	 1159	 0	 0	 1	-30	 30;
	 38	 9	 0.000591	 0.004341	 0	 376	 7210	 7210	 0	 0	 1	-30	 30;
	 38	 9	 0.000591	 0.00405	 0	 395	 7718	 7718	 0	 0	 1	-30	 30;
	 82	 51	 0.00138	 0.01089	 0	 472	 2878	 2878	 0	 0	 1	-30	 30;
	 82	 51	 0.001539	 0.012521	 0	 491	 2504	 2504	 0	 0	 1	-30	 30;
	 82	 2	 0.00205	 0.014229	 0	 433	 2198	 2198	 0	 0	 1	-30	 30;
	 82	 94	 0.00026	 0.00164	 0	 395	 19023	 19023	 0	 0	 1	-30	 30;
	 82	 28	 0.000289	 0.00169	 0	 18424	 18424	 18424	 0	 0	 1	-30	 30;
	 98	 83	 0.001919	 0.01261	 0	 376	 2477	 2477	 0	 0	 1	-30	 30;
	 98	 13	 0.00163	 0.0095	 0	 433	 3278	 3278	 0	 0	 1	-30	 30;
	 116	 115	 0.00488	 0.0497	 0	 472	 633	 633	 0	 0	 1	-30	 30;
	 116	 59	 0.001289	 0.0087	 0	 453	 3592	 3592	 0	 0	 1	-30	 30;
	 116	 42	 0.00211	 0.01524	 0	 472	 2054	 2054	 0	 0	 1	-30	 30;
	 116	 42	 0.00206	 0.015539	 0	 491	 2016	 2016	 0	 0	 1	-30	 30;
	 116	 42	 0.00276	 0.01631	 0	 414	 1910	 1910	 0	 0	 1	-30	 30;
	 116	 83	 0.00305	 0.019521	 0	 510	 1599	 1599	 0	 0	 1	-30	 30;
	 116	 112	 0.000409	 0.0023	 0	 395	 13522	 13522	 0	 0	 1	-30	 30;
	 116	 86	 0.00036	 0.00268	 0	 414	 11682	 11682	 0	 0	 1	-30	 30;
	 115	 47	 0.002789	 0.01562	 0	 433	 1991	 1991	 0	 0	 1	-30	 30;
	 80	 42	 0.001831	 0.008349	 0	 338	 3696	 3696	 0	 0	 1	-30	 30;
	 22	 97	 0.00041	 0.00461	 0	 854	 6825	 6825	 0	 0	 1	-30	 30;
	 22	 97	 0.0004	 0.0047	 0	 920	 6697	 6697	 0	 0	 1	-30	 30;
	 51	 69	 0.00213	 0.01401	 0	 529	 2230	 2230	 0	 0	 1	-30	 30;
	 51	 26	 0.001271	 0.00887	 0	 338	 3526	 3526	 0	 0	 1	-30	 30;
	 51	 34	 0.00462	 0.02743	 0	 433	 1136	 1136	 0	 0	 1	-30	 30;
	 107	 76	 0.00264	 0.019729	 0	 433	 1587	 1587	 0	 0	 1	-30	 30;
	 107	 76	 0.002581	 0.02011	 0	 395	 1558	 1558	 0	 0	 1	-30	 30;
	 84	 40	 0.01424	 0.04751	 0	 637	 637	 637	 0	 0	 1	-30	 30;
	 18	 12	 0.00037	 0.00151	 0	 20318	 20318	 20318	 0	 0	 1	-30	 30;
	 4	 36	 0.00226	 0.0138	 0	 357	 2259	 2259	 0	 0	 1	-30	 30;
	 78	 89	 0.00052	 0.00565	 0	 1315	 5568	 5568	 0	 0	 1	-30	 30;
	 111	 91	 0.002409	 0.019479	 0	 395	 1610	 1610	 0	 0	 1	-30	 30;
	 111	 91	 0.00256	 0.019151	 0	 319	 1635	 1635	 0	 0	 1	-30	 30;
	 111	 32	 0.00656	 0.02288	 0	 281	 1328	 1328	 0	 0	 1	-30	 30;
	 69	 100	 0.00105	 0.00763	 0	 376	 4102	 4102	 0	 0	 1	-30	 30;
	 69	 8	 0.000219	 0.00182	 0	 17232	 17232	 17232	 0	 0	 1	-30	 30;
	 69	 113	 3.9e-05	 0.0002	 0	 155017	 155017	 155017	 0	 0	 1	-30	 30;
	 69	 113	 4.5e-05	 0.000195	 0	 157839	 157839	 157839	 0	 0	 1	-30	 30;
	 69	 55	 0.0035	 0.022651	 0	 433	 1379	 1379	 0	 0	 1	-30	 30;
	 9	 81	 0.01101	 0.06739	 0	 463	 463	 463	 0	 0	 1	-30	 30;
	 9	 30	 0.00063	 0.00463	 0	 338	 6761	 6761	 0	 0	 1	-30	 30;
	 9	 118	 0.002341	 0.009599	 0	 376	 3197	 3197	 0	 0	 1	-30	 30;
	 77	 49	 0.002159	 0.008349	 0	 3663	 3663	 3663	 0	 0	 1	-30	 30;
	 39	 45	 0.00174	 0.007901	 0	 3905	 3905	 3905	 0	 0	 1	-30	 30;
	 59	 56	 0.00019	 0.000909	 0	 281	 34015	 34015	 0	 0	 1	-30	 30;
	 85	 114	 0.000271	 0.00151	 0	 395	 20590	 20590	 0	 0	 1	-30	 30;
	 5	 44	 0.00037	 0.002849	 0	 395	 10995	 10995	 0	 0	 1	-30	 30;
	 64	 67	 0.00168	 0.009841	 0	 395	 3164	 3164	 0	 0	 1	-30	 30;
	 117	 1	 0.002169	 0.00911	 0	 300	 3374	 3374	 0	 0	 1	-30	 30;
	 72	 105	 0.0013	 0.01609	 0	 1743	 1957	 1957	 0	 0	 1	-30	 30;
	 72	 105	 0.00128	 0.0164	 0	 1611	 1921	 1921	 0	 0	 1	-30	 30;
	 72	 29	 0.00089	 0.01082	 0	 1480	 2910	 2910	 0	 0	 1	-30	 30;
	 72	 29	 0.00087	 0.01102	 0	 1545	 2858	 2858	 0	 0	 1	-30	 30;
	 47	 109	 0.003349	 0.02514	 0	 433	 1246	 1246	 0	 0	 1	-30	 30;
	 3	 91	 0.000289	 0.001211	 0	 414	 25372	 25372	 0	 0	 1	-30	 30;
	 25	 41	 0.00874	 0.048461	 0	 300	 642	 642	 0	 0	 1	-30	 30;
	 25	 62	 0.004159	 0.01606	 0	 1905	 1905	 1905	 0	 0	 1	-30	 30;
	 25	 45	 0.002919	 0.01912	 0	 433	 1634	 1634	 0	 0	 1	-30	 30;
	 68	 89	 0.00056	 0.00813	 0	 789	 3877	 3877	 0	 0	 1	-30	 30;
	 1	 20	 0.00361	 0.015211	 0	 338	 2021	 2021	 0	 0	 1	-30	 30;
	 42	 55	 0.00105	 0.01236	 0	 2547	 2547	 2547	 0	 0	 1	-30	 30;
	 42	 55	 0.00199	 0.012331	 0	 395	 2529	 2529	 0	 0	 1	-30	 30;
	 42	 45	 0.00711	 0.044711	 0	 338	 698	 698	 0	 0	 1	-30	 30;
	 97	 105	 0.00066	 0.00838	 0	 1447	 3758	 3758	 0	 0	 1	-30	 30;
	 97	 105	 0.00064	 0.00854	 0	 1447	 3689	 3689	 0	 0	 1	-30	 30;
	 63	 50	 0.00139	 0.005169	 0	 5902	 5902	 5902	 0	 0	 1	-30	 30;
	 56	 86	 0.00099	 0.006789	 0	 414	 4605	 4605	 0	 0	 1	-30	 30;
	 103	 112	 0.001031	 0.00586	 0	 281	 5309	 5309	 0	 0	 1	-30	 30;
	 2	 49	 0.003711	 0.024219	 0	 414	 1290	 1290	 0	 0	 1	-30	 30;
	 105	 89	 0.00169	 0.02156	 0	 1461	 1461	 1461	 0	 0	 1	-30	 30;
	 105	 89	 0.00171	 0.02114	 0	 1490	 1490	 1490	 0	 0	 1	-30	 30;
	 83	 55	 0.00088	 0.00562	 0	 433	 5553	 5553	 0	 0	 1	-30	 30;
	 83	 55	 0.0008	 0.00618	 0	 472	 5069	 5069	 0	 0	 1	-30	 30;
	 23	 118	 0.000461	 0.00168	 0	 18132	 18132	 18132	 0	 0	 1	-30	 30;
	 23	 118	 0.000469	 0.00164	 0	 18519	 18519	 18519	 0	 0	 1	-30	 30;
	 13	 49	 0.00262	 0.020289	 0	 414	 1545	 1545	 0	 0	 1	-30	 30;
	 13	 34	 0.00164	 0.01194	 0	 453	 2621	 2621	 0	 0	 1	-30	 30;
	 81	 71	 0.000521	 0.00407	 0	 529	 7699	 7699	 0	 0	 1	-30	 30;
	 49	 33	 0.001031	 0.004099	 0	 7474	 7474	 7474	 0	 0	 1	-30	 30;
	 49	 101	 0.00301	 0.018719	 0	 376	 1667	 1667	 0	 0	 1	-30	 30;
	 20	 32	 0.00257	 0.01713	 0	 338	 1824	 1824	 0	 0	 1	-30	 30;
	 36	 41	 0.007789	 0.033039	 0	 300	 931	 931	 0	 0	 1	-30	 30;
	 10	 108	 0.001229	 0.00401	 0	 300	 7532	 7532	 0	 0	 1	-30	 30;
	 58	 55	 0.00036	 0.001591	 0	 433	 19365	 19365	 0	 0	 1	-30	 30;
	 41	 108	 0.002581	 0.01814	 0	 414	 1724	 1724	 0	 0	 1	-30	 30;
	 62	 45	 0.009669	 0.03513	 0	 867	 867	 867	 0	 0	 1	-30	 30;
	 62	 108	 0.001099	 0.00862	 0	 3636	 3636	 3636	 0	 0	 1	-30	 30;
	 66	 71	 0.000409	 0.0018	 0	 17113	 17113	 17113	 0	 0	 1	-30	 30;
	 101	 45	 0.003969	 0.02925	 0	 1071	 1071	 1071	 0	 0	 1	-30	 30;
	 45	 50	 0.00282	 0.01844	 0	 529	 1694	 1694	 0	 0	 1	-30	 30;
	 21	 104	 0.0001	 0.00105	 0	 657	 29948	 29948	 0	 0	 1	-30	 30;
	 118	 114	 0.00239	 0.017341	 0	 376	 1805	 1805	 0	 0	 1	-30	 30;
	 89	 104	 0.00163	 0.02291	 0	 1376	 1376	 1376	 0	 0	 1	-30	 30;
	 35	 40	 0.00636	 0.03855	 0	 395	 809	 809	 0	 0	 1	-30	 30;
	 35	 40	 0.00639	 0.03863	 0	 414	 807	 807	 0	 0	 1	-30	 30;
	 76	 109	 0.0043	 0.033591	 0	 414	 933	 933	 0	 0	 1	-30	 30;
	 50	 71	 0.000771	 0.004539	 0	 529	 6861	 6861	 0	 0	 1	-30	 30;
	 11	 19	 0.000355	 0.026586	 0	 591	 1189	 1189	 0.93617	 0	 1	-30	 30;
	 11	 19	 0.000375	 0.026313	 0	 591	 1201	 1201	 0.93617	 0	 1	-30	 30;
	 70	 27	 0.000261	 0.030762	 0	 591	 1027	 1027	 0.93617	 0	 1	-30	 30;
	 70	 27	 0.000261	 0.030088	 0	 591	 1050	 1050	 0.93617	 0	 1	-30	 30;
	 96	 7	 0.000323	 0.02748	 0	 591	 1150	 1150	 0.93617	 0	 1	-30	 30;
	 96	 7	 0.000292	 0.028158	 0	 591	 1122	 1122	 0.93617	 0	 1	-30	 30;
	 7	 65	 0	 0.009197	 0	 567	 3435	 3435	 1	 0.072386	 1	-30	 30;
	 22	 51	 0.000313	 0.026875	 0	 591	 1176	 1176	 0.979227	 0	 1	-30	 30;
	 22	 51	 0.000302	 0.027376	 0	 591	 1154	 1154	 0.979227	 0	 1	-30	 30;
	 78	 111	 0.000365	 0.023517	 0	 591	 1344	 1344	 0.979227	 0	 1	-30	 30;
	 78	 73	 0.000334	 0.026812	 0	 591	 1179	 1179	 0.979227	 0	 1	-30	 30;
	 72	 47	 0.000365	 0.026027	 0	 591	 1214	 1214	 0.93617	 0	 1	-30	 30;
	 72	 47	 0.000386	 0.025673	 0	 591	 1231	 1231	 0.93617	 0	 1	-30	 30;
	 68	 1	 0.000788	 0.040317	 0	 784	 784	 784	 0.982143	 0	 1	-30	 30;
	 97	 8	 0.000323	 0.025863	 0	 591	 1222	 1222	 0.979227	 0	 1	-30	 30;
	 105	 83	 0.000344	 0.024841	 0	 591	 1272	 1272	 0.979227	 0	 1	-30	 30;
	 105	 83	 0.000365	 0.025029	 0	 591	 1262	 1262	 0.979227	 0	 1	-30	 30;
	 105	 83	 0.000355	 0.024101	 0	 591	 1311	 1311	 0.979227	 0	 1	-30	 30;
	 89	 35	 0.000344	 0.024956	 0	 591	 1266	 1266	 0.979227	 0	 1	-30	 30;
	 89	 35	 0.000355	 0.024435	 0	 591	 1293	 1293	 0.979227	 0	 1	-30	 30;
	 29	 76	 0.000323	 0.02748	 0	 591	 1150	 1150	 0.93617	 0	 1	-30	 30;
	 29	 76	 0.000313	 0.028001	 0	 591	 1129	 1129	 0.93617	 0	 1	-30	 30;
];

mpc_regionR2.gencost = [
%	2           startup     shutdown    n           c(n-1)...c0 
	 2	 0	 0	 3	 0	 15.01068	 0;
	 2	 0	 0	 3	 0	 9.860522	 0;
	 2	 0	 0	 3	 0	 24.001968	 0;
	 2	 0	 0	 3	 0	 39.793039	 0;
	 2	 0	 0	 3	 0	 34.810352	 0;
	 2	 0	 0	 3	 0	 23.765406	 0;
	 2	 0	 0	 3	 0	 30.752977	 0;
	 2	 0	 0	 3	 0	 22.474015	 0;
	 2	 0	 0	 3	 0	 28.059178	 0;
	 2	 0	 0	 3	 0	 19.68005	 0;
	 2	 0	 0	 3	 0	 26.499589	 0;
	 2	 0	 0	 3	 0	 7.619883	 0;
	 2	 0	 0	 3	 0	 27.981934	 0;
	 2	 0	 0	 3	 0	 35.562693	 0;
	 2	 0	 0	 3	 0	 18.53867	 0;
	 2	 0	 0	 3	 0	 22.588806	 0;
	 2	 0	 0	 3	 0	 43.366752	 0;
	 2	 0	 0	 3	 0	 36.303918	 0;
	 2	 0	 0	 3	 0	 38.250898	 0;
	 2	 0	 0	 3	 0	 32.184103	 0;
	 2	 0	 0	 3	 0	 113.881521	 0;
	 2	 0	 0	 3	 0	 7.924707	 0;
	 2	 0	 0	 3	 0	 32.583295	 0;
	 2	 0	 0	 3	 0	 43.804954	 0;
	 2	 0	 0	 3	 0	 29.385085	 0;
	 2	 0	 0	 3	 0	 125.432468	 0;
	 2	 0	 0	 3	 0	 36.240526	 0;
	 2	 0	 0	 3	 0	 28.712216	 0;
	 2	 0	 0	 3	 0	 24.618848	 0;
	 2	 0	 0	 3	 0	 26.881811	 0;
	 2	 0	 0	 3	 0	 23.648506	 0;
	 2	 0	 0	 3	 0	 33.579005	 0;
];


% -------------------- mpc_regionR3 --------------------

mpc_regionR3.version = '2';
mpc_regionR3.baseMVA = 100.0000;
mpc_regionR3.bus = [
%	bus_i       type        Pd          Qd          Gs          Bs          area        Vm          Va          baseKV      zone        Vmax        Vmin        
	 1	 1	 134	 24.7	 0	 12.44	 0	 1	 0	 220	 5	 1.1	 0.9;
	 2	 1	 161.2	 39.3	 0	 30.71	 0	 1	 0	 220	 5	 1.1	 0.9;
	 3	 1	-0	 0	 0	 7.27	 0	 1	 0	 220	 5	 1.1	 0.9;
	 4	 1	 0	-0	 0	 4.21	 0	 1	 0	 220	 5	 1.1	 0.9;
	 5	 1	 370.5	-17	 0	 9.91	 0	 1	 0	 220	 5	 1.1	 0.9;
	 6	 1	 0	-0	 0	 12.48	 0	 1	 0	 220	 5	 1.1	 0.9;
	 7	 1	 0	 0	 0	 1.15	 0	 1	 0	 220	 5	 1.1	 0.9;
	 8	 1	-0	 0	 0	 4.76	 0	 1	 0	 220	 5	 1.1	 0.9;
	 9	 1	 110.4	 26.2	 0	 5.62	 0	 1	 0	 220	 5	 1.1	 0.9;
	 10	 2	 0	 0	 0	 0	 0	 1	 0	 380	 5	 1.1	 0.9;
	 11	 1	 65.17	-51.5	 0	 4.85	 0	 1	 0	 220	 5	 1.1	 0.9;
	 12	 2	 0	 0	 0	 0	 0	 1	 0	 220	 5	 1.1	 0.9;
	 13	 1	 0	 0	 0	 29.42	 0	 1	 0	 380	 5	 1.1	 0.9;
	 14	 1	 67.57	 17	 0	 5.75	 0	 1	 0	 220	 5	 1.1	 0.9;
	 15	 1	 69.58	 16	 0	 3.03	 0	 1	 0	 220	 5	 1.1	 0.9;
	 16	 2	 0	 0	 0	 0	 0	 1	 0	 380	 5	 1.1	 0.9;
	 17	 1	 82.69	 20.1	 0	 1.36	 0	 1	 0	 220	 5	 1.1	 0.9;
	 18	 1	 108.7	-12.15	 0	 37.11	 0	 1	 0	 380	 5	 1.1	 0.9;
	 19	 1	-5.91	-2.33	 0	 30.393595	 0	 1	 0	 380	 5	 1.1	 0.9;
	 20	 1	 56.06	 18.7	 0	 4.24	 0	 1	 0	 220	 5	 1.1	 0.9;
	 21	 2	 0	 0	 0	 0	 0	 1	 0	 220	 5	 1.1	 0.9;
	 22	 1	 29.83	 7.3	 0	 6.49	 0	 1	 0	 220	 5	 1.1	 0.9;
	 23	 1	 0	 0	 0	 1.1	 0	 1	 0	 220	 5	 1.1	 0.9;
	 24	 1	 190.47	 55.03	 0	 6.7	 0	 1	 0	 220	 5	 1.1	 0.9;
	 25	 1	-0	-0	 0	 2.3	 0	 1	 0	 220	 5	 1.1	 0.9;
	 26	 2	 0	 0	 0	 0	 0	 1	 0	 380	 5	 1.3	 0.7;
	 27	 1	 30.93	 7.6	 0	 4.69	 0	 1	 0	 220	 5	 1.1	 0.9;
	 28	 1	 144.7	 20.3	 0	 6.35	 0	 1	 0	 220	 5	 1.1	 0.9;
	 29	 1	-0	 0	 0	 3.85	 0	 1	 0	 220	 5	 1.1	 0.9;
	 30	 1	 0	 0	 0	 9.49	 0	 1	 0	 220	 5	 1.1	 0.9;
	 31	 1	 0	 0	 0	 4.86	 0	 1	 0	 220	 5	 1.1	 0.9;
	 32	 1	 42.55	 8.2	 0	 2.06	 0	 1	 0	 220	 5	 1.1	 0.9;
	 33	 1	-0	-0	 0	 7.99	 0	 1	 0	 220	 5	 1.1	 0.9;
	 34	 1	 156.9	-4	 0	 2.48	 0	 1	 0	 220	 5	 1.1	 0.9;
	 35	 1	 71.77	 13.57	 0	 3.84	 0	 1	 0	 220	 5	 1.1	 0.9;
	 36	 2	 0	 0	 0	 0	 0	 1	 0	 380	 5	 1.1	 0.9;
	 37	 1	-17.18	-4.35	 0	 44.419365	 0	 1	 0	 380	 5	 1.1	 0.9;
	 38	 1	 0	-0	 0	 121.29	 0	 1	 0	 380	 5	 1.1	 0.9;
	 39	 2	 0	 0	 0	 0	 0	 1	 0	 380	 5	 1.1	 0.9;
	 40	 1	 108.91	 33.7	 0	 56.24	 0	 1	 0	 380	 5	 1.1	 0.9;
	 41	 1	 0	 0	 0	 3.33	 0	 1	 0	 220	 5	 1.1	 0.9;
	 42	 1	 0	-0	 0	 3.02	 0	 1	 0	 220	 5	 1.1	 0.9;
	 43	 1	 192.11	 45.5	 0	 68.04	 0	 1	 0	 380	 5	 1.1	 0.9;
	 44	 1	 210.1	 66.2	 0	 59.36	 0	 1	 0	 220	 5	 1.1	 0.9;
	 45	 1	 0	-0	 0	 1.71	 0	 1	 0	 220	 5	 1.1	 0.9;
	 46	 1	 141.3	 32.4	 0	 7.29	 0	 1	 0	 220	 5	 1.1	 0.9;
	 47	 1	 32.04	 6.6	 0	 0.44	 0	 1	 0	 220	 5	 1.1	 0.9;
	 48	 1	 0	-0	 0	 14.490904	 0	 1	 0	 380	 5	 1.1	 0.9;
	 49	 2	 0	 0	 0	 0	 0	 1	 0	 220	 5	 1.1	 0.9;
	 50	 2	 0	 0	 0	 0	 0	 1	 0	 220	 5	 1.1	 0.9;
	 51	 1	 132	 26	 0	 27.18	 0	 1	 0	 380	 5	 1.1	 0.9;
	 52	 1	-0	 0	 0	 2.09	 0	 1	 0	 220	 5	 1.1	 0.9;
	 53	 1	 238.45	 46.86	 0	 125.534496	 0	 1	 0	 380	 5	 1.1	 0.9;
	 54	 1	 0	 0	 0	 0.19	 0	 1	 0	 220	 5	 1.1	 0.9;
	 55	 2	 0	 0	 0	 0	 0	 1	 0	 380	 5	 1.1	 0.9;
	 56	 1	-0	 0	 0	 0.22	 0	 1	 0	 220	 5	 1.1	 0.9;
	 57	 1	-0	 0	 0	 32.049116	 0	 1	 0	 380	 5	 1.1	 0.9;
	 58	 1	 0	-0	 0	 92.38	 0	 1	 0	 220	 5	 1.1	 0.9;
	 59	 1	 112.51	 16.51	 0	 1.63	 0	 1	 0	 220	 5	 1.1	 0.9;
	 60	 1	-0	 0	 0	 1.68	 0	 1	 0	 220	 5	 1.1	 0.9;
	 61	 1	 221	 146.8	 0	 8.35	 0	 1	 0	 220	 5	 1.1	 0.9;
	 62	 1	 0	-0	 0	 4.27	 0	 1	 0	 220	 5	 1.1	 0.9;
	 63	 1	-0	 0	 0	 1.18	 0	 1	 0	 380	 5	 1.1	 0.9;
	 64	 1	 302.5	 65.1	 0	 8.87	 0	 1	 0	 220	 5	 1.1	 0.9;
	 65	 1	 99.3	 23.3	 0	 1.88	 0	 1	 0	 220	 5	 1.1	 0.9;
	 66	 1	-0	 0	 0	 0.49	 0	 1	 0	 220	 5	 1.1	 0.9;
	 67	 1	 0	-0	 0	 3.34	 0	 1	 0	 220	 5	 1.1	 0.9;
	 68	 1	-0	-0	 0	 14.079026	 0	 1	 0	 380	 5	 1.1	 0.9;
	 69	 1	-38.7	-12.99	 0	 13.47383	 0	 1	 0	 380	 5	 1.1	 0.9;
	 70	 1	 185.8	 31.8	 0	 3.73	 0	 1	 0	 220	 5	 1.1	 0.9;
	 71	 1	 20.72	 5	 0	 6.64	 0	 1	 0	 220	 5	 1.1	 0.9;
	 72	 1	 131	 1.3	 0	 120.45	 0	 1	 0	 220	 5	 1.1	 0.9;
	 73	 1	 28.03	 6.5	 0	 6.32	 0	 1	 0	 220	 5	 1.1	 0.9;
	 74	 1	 163.5	 44.9	 0	 1.17	 0	 1	 0	 220	 5	 1.1	 0.9;
	 75	 1	-0	 0	 0	 97.326028	 0	 1	 0	 380	 5	 1.1	 0.9;
	 76	 1	-38.73	-15.32	 0	 97.23	 0	 1	 0	 220	 5	 1.1	 0.9;
	 77	 1	 19.42	 11.8	 0	 2.6	 0	 1	 0	 220	 5	 1.1	 0.9;
	 78	 1	 81.09	 12.5	 0	 2.4	 0	 1	 0	 220	 5	 1.1	 0.9;
	 79	 1	 0	 0	 0	 1.2	 0	 1	 0	 220	 5	 1.1	 0.9;
	 80	 1	-0	-0	 0	 17.29	 0	 1	 0	 220	 5	 1.1	 0.9;
	 81	 1	 24.93	 9.6	 0	 0.09	 0	 1	 0	 220	 5	 1.1	 0.9;
	 82	 1	 65.07	 15	 0	 1.37	 0	 1	 0	 220	 5	 1.1	 0.9;
	 83	 1	-0	 0	 0	 0.8	 0	 1	 0	 220	 5	 1.1	 0.9;
	 84	 1	 119	 21.9	 0	 0.95	 0	 1	 0	 220	 5	 1.1	 0.9;
	 85	 1	 166.4	 50.4	 0	 1.23	 0	 1	 0	 220	 5	 1.1	 0.9;
	 86	 1	-0	 0	 0	 0.3	 0	 1	 0	 220	 5	 1.1	 0.9;
	 87	 1	 17.87	-8.59	 0	 0.21	 0	 1	 0	 220	 5	 1.1	 0.9;
	 88	 1	 136.6	 29	 0	 2.05	 0	 1	 0	 220	 5	 1.1	 0.9;
	 89	 2	 0	 0	 0	 0	 0	 1	 0	 380	 5	 1.1	 0.9;
	 90	 1	-0	 0	 0	 7.84	 0	 1	 0	 220	 5	 1.1	 0.9;
	 91	 1	 246.8	 36.3	 0	 16.01	 0	 1	 0	 220	 5	 1.1	 0.9;
	 92	 1	-0	-0	 0	 7.4	 0	 1	 0	 220	 5	 1.1	 0.9;
	 93	 1	 17.22	 5.1	 0	 0.99	 0	 1	 0	 220	 5	 1.1	 0.9;
	 94	 1	 0	-0	 0	 42.19206	 0	 1	 0	 380	 5	 1.1	 0.9;
	 95	 1	 64.27	 17.5	 0	 0.43	 0	 1	 0	 220	 5	 1.1	 0.9;
	 96	 1	 70.18	 19.5	 0	 3.59	 0	 1	 0	 220	 5	 1.1	 0.9;
	 97	 1	 152.73	-17.2	 0	 45.85	 0	 1	 0	 220	 5	 1.1	 0.9;
	 98	 2	 0	 0	 0	 0	 0	 1	 0	 380	 5	 1.3	 0.7;
	 99	 1	 0	 0	 0	 9.09	 0	 1	 0	 220	 5	 1.1	 0.9;
	 100	 1	-0	-0	 0	 18.02	 0	 1	 0	 220	 5	 1.1	 0.9;
	 101	 1	-0	 0	 0	 1.01	 0	 1	 0	 220	 5	 1.1	 0.9;
	 102	 1	 99.5	 9.2	 0	 27.55	 0	 1	 0	 220	 5	 1.1	 0.9;
	 103	 1	-0	-0	 0	 115.528858	 0	 1	 0	 380	 5	 1.1	 0.9;
...